<?xml version="1.0" encoding="UTF-8"?>

<!-- generated on 07/22/19 21:05:01 by Eclipse SUMO netedit Version v1_0_1+0383-8ba62d898b
<configuration xmlns:xsi="http://www.w3.org/2001/XMLSchema-instance" xsi:noNamespaceSchemaLocation="http://sumo.dlr.de/xsd/netconvertConfiguration.xsd">

    <input>
        <sumo-net-file value="london-seg4.net.xml"/>
    </input>

    <output>
        <output-file value="london-seg4.net.xml"/>
        <plain-output-prefix value="C:\sumo-windows10\projects\london-seg4\data\london-seg4"/>
        <output.street-names value="true"/>
    </output>

    <processing>
        <offset.disable-normalization value="true"/>
        <lefthand value="false"/>
    </processing>

    <junctions>
        <no-turnarounds value="true"/>
        <junctions.corner-detail value="5"/>
        <junctions.limit-turn-speed value="5.5"/>
        <rectangular-lane-cut value="false"/>
    </junctions>

    <pedestrian>
        <walkingareas value="false"/>
    </pedestrian>

</configuration>
-->

<tlLogics version="1.0" xmlns:xsi="http://www.w3.org/2001/XMLSchema-instance" xsi:noNamespaceSchemaLocation="http://sumo.dlr.de/xsd/tllogic_file.xsd">
    <tlLogic id="101330838" type="static" programID="0" offset="0">
        <phase duration="82" state="GGGgGGgg"/>
        <phase duration="3"  state="yyyyyyyy"/>
        <phase duration="5"  state="rrrrrrrr"/>
    </tlLogic>
    <tlLogic id="101831" type="static" programID="0" offset="0">
        <phase duration="38" state="GGgGGggrrrr"/>
        <phase duration="3"  state="yygyyggrrrr"/>
        <phase duration="6"  state="rrGrrGGrrrr"/>
        <phase duration="3"  state="rryrryyrrrr"/>
        <phase duration="37" state="GrrrrrrGGGg"/>
        <phase duration="3"  state="yrrrrrryyyy"/>
    </tlLogic>
    <tlLogic id="101843" type="static" programID="0" offset="0">
        <phase duration="38" state="GGGggrrrrGGGggrrrr"/>
        <phase duration="3"  state="yyyyyrrrryyyyyrrrr"/>
        <phase duration="37" state="rrrrrGGggrrrrrGGgg"/>
        <phase duration="3"  state="rrrrryyggrrrrryygg"/>
        <phase duration="6"  state="rrrrrrrGGrrrrrrrGG"/>
        <phase duration="3"  state="rrrrrrryyrrrrrrryy"/>
    </tlLogic>
    <tlLogic id="101877" type="static" programID="0" offset="0">
        <phase duration="42" state="GggrrrGGg"/>
        <phase duration="3"  state="yyyrrryyy"/>
        <phase duration="42" state="rrrGGgGrr"/>
        <phase duration="3"  state="rrryyyyrr"/>
    </tlLogic>
    <tlLogic id="101990" type="static" programID="0" offset="0">
        <phase duration="42" state="GGrrr"/>
        <phase duration="3"  state="yyrrr"/>
        <phase duration="42" state="rrGGG"/>
        <phase duration="3"  state="rryyy"/>
    </tlLogic>
    <tlLogic id="101991" type="static" programID="0" offset="0">
        <phase duration="42" state="GggGGgrrr"/>
        <phase duration="3"  state="yyyyyyrrr"/>
        <phase duration="42" state="rrrrrrGGG"/>
        <phase duration="3"  state="rrrrrryyy"/>
    </tlLogic>
    <tlLogic id="101993" type="static" programID="0" offset="0">
        <phase duration="42" state="GGrr"/>
        <phase duration="3"  state="yyrr"/>
        <phase duration="42" state="rrGG"/>
        <phase duration="3"  state="rryy"/>
    </tlLogic>
    <tlLogic id="102035" type="static" programID="0" offset="0">
        <phase duration="38" state="GGgrrrGggrrr"/>
        <phase duration="3"  state="yyyrrryyyrrr"/>
        <phase duration="37" state="rrrGGgrrrGgg"/>
        <phase duration="3"  state="rrryygrrrygg"/>
        <phase duration="6"  state="rrrrrGrrrrGG"/>
        <phase duration="3"  state="rrrrryrrrryy"/>
    </tlLogic>
    <tlLogic id="102037" type="static" programID="0" offset="0">
        <phase duration="42" state="GGggrrrrGGggrrrr"/>
        <phase duration="3"  state="yyyyrrrryyyyrrrr"/>
        <phase duration="42" state="rrrrGGggrrrrGGgg"/>
        <phase duration="3"  state="rrrryyyyrrrryyyy"/>
    </tlLogic>
    <tlLogic id="104302" type="static" programID="0" offset="0">
        <phase duration="42" state="GGrrrr"/>
        <phase duration="3"  state="yyrrrr"/>
        <phase duration="42" state="rrGGGG"/>
        <phase duration="3"  state="rryyyy"/>
    </tlLogic>
    <tlLogic id="104315" type="static" programID="0" offset="0">
        <phase duration="42" state="rrrrggGGgggg"/>
        <phase duration="3"  state="rrrryyyyyyyy"/>
        <phase duration="42" state="GGGGrrrrrrrr"/>
        <phase duration="3"  state="yyyyrrrrrrrr"/>
    </tlLogic>
    <tlLogic id="104318" type="static" programID="0" offset="0">
        <phase duration="42" state="rrrrGGGggrrrrGGGgg"/>
        <phase duration="3"  state="rrrryyyyyrrrryyyyy"/>
        <phase duration="42" state="GGggrrrrrGGggrrrrr"/>
        <phase duration="3"  state="yyyyrrrrryyyyrrrrr"/>
    </tlLogic>
    <tlLogic id="104322" type="static" programID="0" offset="0">
        <phase duration="42" state="GGggrrrrGGggrrrr"/>
        <phase duration="3"  state="yyyyrrrryyyyrrrr"/>
        <phase duration="42" state="rrrrGGggrrrrGGgg"/>
        <phase duration="3"  state="rrrryyyyrrrryyyy"/>
    </tlLogic>
    <tlLogic id="10606317" type="static" programID="0" offset="0">
        <phase duration="42" state="rrrrGGGggrrrrGGGgg"/>
        <phase duration="3"  state="rrrryyyyyrrrryyyyy"/>
        <phase duration="42" state="GGggrrrrrGGggrrrrr"/>
        <phase duration="3"  state="yyyyrrrrryyyyrrrrr"/>
    </tlLogic>
    <tlLogic id="10677374" type="static" programID="0" offset="0">
        <phase duration="42" state="GGggrrrrGGggrrrr"/>
        <phase duration="3"  state="yyyyrrrryyyyrrrr"/>
        <phase duration="42" state="rrrrggGgrrrrGggg"/>
        <phase duration="3"  state="rrrryyyyrrrryyyy"/>
    </tlLogic>
    <tlLogic id="10677375" type="static" programID="0" offset="0">
        <phase duration="42" state="GggrrrGGg"/>
        <phase duration="3"  state="yyyrrryyy"/>
        <phase duration="42" state="rrrGGgGrr"/>
        <phase duration="3"  state="rrryyyyrr"/>
    </tlLogic>
    <tlLogic id="10677377" type="static" programID="0" offset="0">
        <phase duration="42" state="GggrrrGGg"/>
        <phase duration="3"  state="yyyrrryyy"/>
        <phase duration="42" state="rrrGGgGrr"/>
        <phase duration="3"  state="rrryyyyrr"/>
    </tlLogic>
    <tlLogic id="106848" type="static" programID="0" offset="0">
        <phase duration="42" state="rrrrGGggrrrrGGgg"/>
        <phase duration="3"  state="rrrryyyyrrrryyyy"/>
        <phase duration="42" state="GGggrrrrGGggrrrr"/>
        <phase duration="3"  state="yyyyrrrryyyyrrrr"/>
    </tlLogic>
    <tlLogic id="106881" type="static" programID="0" offset="0">
        <phase duration="82" state="GGGgGGgg"/>
        <phase duration="3"  state="yyyyyyyy"/>
        <phase duration="5"  state="rrrrrrrr"/>
    </tlLogic>
    <tlLogic id="10703277" type="static" programID="0" offset="0">
        <phase duration="82" state="GGGG"/>
        <phase duration="3"  state="yyyy"/>
        <phase duration="5"  state="rrrr"/>
    </tlLogic>
    <tlLogic id="107352" type="static" programID="0" offset="0">
        <phase duration="42" state="GGrr"/>
        <phase duration="3"  state="yyrr"/>
        <phase duration="42" state="rrGG"/>
        <phase duration="3"  state="rryy"/>
    </tlLogic>
    <tlLogic id="107587" type="static" programID="0" offset="0">
        <phase duration="42" state="GGggrrrrGGGggrrrr"/>
        <phase duration="3"  state="yyyyrrrryyyyyrrrr"/>
        <phase duration="42" state="rrrrGGggrrrrrGGgg"/>
        <phase duration="3"  state="rrrryyyyrrrrryyyy"/>
    </tlLogic>
    <tlLogic id="107645" type="static" programID="0" offset="0">
        <phase duration="38" state="rrrrGGggrrrrGGgg"/>
        <phase duration="3"  state="rrrryyggrrrryygg"/>
        <phase duration="6"  state="rrrrrrGGrrrrrrGG"/>
        <phase duration="3"  state="rrrrrryyrrrrrryy"/>
        <phase duration="37" state="GGggrrrrGGggrrrr"/>
        <phase duration="3"  state="yyyyrrrryyyyrrrr"/>
    </tlLogic>
    <tlLogic id="107693" type="static" programID="0" offset="0">
        <phase duration="38" state="rrrrrrrrGGGgGggg"/>
        <phase duration="3"  state="rrrrrrrryyygyggg"/>
        <phase duration="6"  state="rrrrrrrrrrrGrGGG"/>
        <phase duration="3"  state="rrrrrrrrrrryryyy"/>
        <phase duration="37" state="GGGgGgggrrrrrrrr"/>
        <phase duration="3"  state="yyyyyyyyrrrrrrrr"/>
    </tlLogic>
    <tlLogic id="107790" type="static" programID="0" offset="0">
        <phase duration="42" state="rrGGgGGg"/>
        <phase duration="3"  state="rryyyyyy"/>
        <phase duration="42" state="GGrrrrrr"/>
        <phase duration="3"  state="yyrrrrrr"/>
    </tlLogic>
    <tlLogic id="107809" type="static" programID="0" offset="0">
        <phase duration="38" state="GGgrrGGgrr"/>
        <phase duration="3"  state="yyyrryyyrr"/>
        <phase duration="37" state="rrrGgrrrGg"/>
        <phase duration="3"  state="rrrygrrryg"/>
        <phase duration="6"  state="rrrrGrrrrG"/>
        <phase duration="3"  state="rrrryrrrry"/>
    </tlLogic>
    <tlLogic id="107831" type="static" programID="0" offset="0">
        <phase duration="42" state="GGGrrrr"/>
        <phase duration="3"  state="yyyrrrr"/>
        <phase duration="42" state="rrrGGGG"/>
        <phase duration="3"  state="rrryyyy"/>
    </tlLogic>
    <tlLogic id="107853" type="static" programID="0" offset="0">
        <phase duration="38" state="ggGGrrrr"/>
        <phase duration="3"  state="ggyyrrrr"/>
        <phase duration="6"  state="GGrrrrrr"/>
        <phase duration="3"  state="yyrrrrrr"/>
        <phase duration="37" state="rrrrGGGG"/>
        <phase duration="3"  state="rrrryyyy"/>
    </tlLogic>
    <tlLogic id="107863" type="static" programID="0" offset="0">
        <phase duration="42" state="GGggrrrGGGg"/>
        <phase duration="3"  state="yyyyrrryyyy"/>
        <phase duration="42" state="rrrrGGgGrrr"/>
        <phase duration="3"  state="rrrryyyyrrr"/>
    </tlLogic>
    <tlLogic id="107896" type="static" programID="0" offset="0">
        <phase duration="42" state="GGGrrrr"/>
        <phase duration="3"  state="yyyrrrr"/>
        <phase duration="42" state="rrrGGGG"/>
        <phase duration="3"  state="rrryyyy"/>
    </tlLogic>
    <tlLogic id="108097" type="static" programID="0" offset="0">
        <phase duration="38" state="GGGgrrrGGggrrr"/>
        <phase duration="3"  state="yyyyrrryyyyrrr"/>
        <phase duration="37" state="rrrrGGgrrrrGgg"/>
        <phase duration="3"  state="rrrryygrrrrygg"/>
        <phase duration="6"  state="rrrrrrGrrrrrGG"/>
        <phase duration="3"  state="rrrrrryrrrrryy"/>
    </tlLogic>
    <tlLogic id="108103" type="static" programID="0" offset="0">
        <phase duration="42" state="rrrrGGGggrrrrGGGgg"/>
        <phase duration="3"  state="rrrryyyyyrrrryyyyy"/>
        <phase duration="42" state="GGggrrrrrGGggrrrrr"/>
        <phase duration="3"  state="yyyyrrrrryyyyrrrrr"/>
    </tlLogic>
    <tlLogic id="108118" type="static" programID="0" offset="0">
        <phase duration="38" state="GGGggrrrrGGGggrrrr"/>
        <phase duration="3"  state="yyyyyrrrryyyyyrrrr"/>
        <phase duration="37" state="rrrrrGGggrrrrrGGgg"/>
        <phase duration="3"  state="rrrrryyggrrrrryygg"/>
        <phase duration="6"  state="rrrrrrrGGrrrrrrrGG"/>
        <phase duration="3"  state="rrrrrrryyrrrrrrryy"/>
    </tlLogic>
    <tlLogic id="108234" type="static" programID="0" offset="0">
        <phase duration="82" state="GGG"/>
        <phase duration="3"  state="yyy"/>
        <phase duration="5"  state="rrr"/>
    </tlLogic>
    <tlLogic id="108245" type="static" programID="0" offset="0">
        <phase duration="38" state="gggrrrGGG"/>
        <phase duration="3"  state="gggrrryyy"/>
        <phase duration="6"  state="GGGrrrrrr"/>
        <phase duration="3"  state="yyyrrrrrr"/>
        <phase duration="37" state="GrrGGgrrr"/>
        <phase duration="3"  state="yrryyyrrr"/>
    </tlLogic>
    <tlLogic id="108252" type="static" programID="0" offset="0">
        <phase duration="42" state="GGrrr"/>
        <phase duration="3"  state="yyrrr"/>
        <phase duration="42" state="rrGGG"/>
        <phase duration="3"  state="rryyy"/>
    </tlLogic>
    <tlLogic id="108263" type="static" programID="0" offset="0">
        <phase duration="42" state="GgggrrrgGGg"/>
        <phase duration="3"  state="yyyyrrryyyy"/>
        <phase duration="42" state="rrrrGGGrrrr"/>
        <phase duration="3"  state="rrrryyyrrrr"/>
    </tlLogic>
    <tlLogic id="108275" type="static" programID="0" offset="0">
        <phase duration="38" state="GGgGggrrr"/>
        <phase duration="3"  state="yygyggrrr"/>
        <phase duration="6"  state="rrGrGGrrr"/>
        <phase duration="3"  state="rryryyrrr"/>
        <phase duration="37" state="GrrrrrGGg"/>
        <phase duration="3"  state="yrrrrryyy"/>
    </tlLogic>
    <tlLogic id="108283" type="static" programID="0" offset="0">
        <phase duration="38" state="gggrrrGGg"/>
        <phase duration="3"  state="gggrrryyg"/>
        <phase duration="6"  state="GGGrrrrrg"/>
        <phase duration="3"  state="yyyrrrrry"/>
        <phase duration="37" state="rrrGGgGrr"/>
        <phase duration="3"  state="rrryyyyrr"/>
    </tlLogic>
    <tlLogic id="108290" type="static" programID="0" offset="0">
        <phase duration="42" state="GGggrrrGGGg"/>
        <phase duration="3"  state="yyyyrrryyyy"/>
        <phase duration="42" state="rrrrGGgGrrr"/>
        <phase duration="3"  state="rrrryyyyrrr"/>
    </tlLogic>
    <tlLogic id="108355" type="static" programID="0" offset="0">
        <phase duration="42" state="rrrrGGGggrrrrGGGgg"/>
        <phase duration="3"  state="rrrryyyyyrrrryyyyy"/>
        <phase duration="42" state="GGggrrrrrGGggrrrrr"/>
        <phase duration="3"  state="yyyyrrrrryyyyrrrrr"/>
    </tlLogic>
    <tlLogic id="108396" type="static" programID="0" offset="0">
        <phase duration="42" state="GGggrrrrrGGggrrrrr"/>
        <phase duration="3"  state="yyyyrrrrryyyyrrrrr"/>
        <phase duration="42" state="rrrrGGGggrrrrGGGgg"/>
        <phase duration="3"  state="rrrryyyyyrrrryyyyy"/>
    </tlLogic>
    <tlLogic id="108417" type="static" programID="0" offset="0">
        <phase duration="27" state="GGGgggrrrrrrrrrrGGGGggrrrrr"/>
        <phase duration="3"  state="yyyyyyrrrrrrrrrryyyyyyrrrrr"/>
        <phase duration="27" state="rrrrrrrrrrrgGgggrrrrrrGGggg"/>
        <phase duration="3"  state="rrrrrrrrrrryyyyyrrrrrryyyyy"/>
        <phase duration="27" state="rrrrrrGGGGgGrrrrrrrrrrrrrrr"/>
        <phase duration="3"  state="rrrrrryyyyyyrrrrrrrrrrrrrrr"/>
    </tlLogic>
    <tlLogic id="108428" type="static" programID="0" offset="0">
        <phase duration="42" state="GGGgrrrrGGgg"/>
        <phase duration="3"  state="yyyyrrrryyyy"/>
        <phase duration="42" state="rrrrGGGGrrrr"/>
        <phase duration="3"  state="rrrryyyyrrrr"/>
    </tlLogic>
    <tlLogic id="108464" type="static" programID="0" offset="0">
        <phase duration="38" state="rrrrrGGgGGg"/>
        <phase duration="3"  state="rrrrryyyyyy"/>
        <phase duration="37" state="GGGggrrrrrr"/>
        <phase duration="3"  state="yyyggrrrrrr"/>
        <phase duration="6"  state="rrrGGrrrrrr"/>
        <phase duration="3"  state="rrryyrrrrrr"/>
    </tlLogic>
    <tlLogic id="108621" type="static" programID="0" offset="0">
        <phase duration="42" state="rrrrGGGggrrrrGGgg"/>
        <phase duration="3"  state="rrrryyyyyrrrryyyy"/>
        <phase duration="42" state="GGggrrrrrGGggrrrr"/>
        <phase duration="3"  state="yyyyrrrrryyyyrrrr"/>
    </tlLogic>
    <tlLogic id="10870255" type="static" programID="0" offset="0">
        <phase duration="42" state="rrGGGggg"/>
        <phase duration="3"  state="rryyyyyy"/>
        <phase duration="42" state="GgGGrrrr"/>
        <phase duration="3"  state="yyyyrrrr"/>
    </tlLogic>
    <tlLogic id="108903" type="static" programID="0" offset="0">
        <phase duration="42" state="GGgrrGGg"/>
        <phase duration="3"  state="yyyrryyy"/>
        <phase duration="42" state="rrrGGrrr"/>
        <phase duration="3"  state="rrryyrrr"/>
    </tlLogic>
    <tlLogic id="109361" type="static" programID="0" offset="0">
        <phase duration="42" state="rrrrGGggrrrrGGGgg"/>
        <phase duration="3"  state="rrrryyyyrrrryyyyy"/>
        <phase duration="42" state="GGggrrrrGGggrrrrr"/>
        <phase duration="3"  state="yyyyrrrryyyyrrrrr"/>
    </tlLogic>
    <tlLogic id="109753" type="static" programID="0" offset="0">
        <phase duration="42" state="GGGggrrrrGGGggrrrr"/>
        <phase duration="3"  state="yyyyyrrrryyyyyrrrr"/>
        <phase duration="42" state="rrrrrGGggrrrrrGGgg"/>
        <phase duration="3"  state="rrrrryyyyrrrrryyyy"/>
    </tlLogic>
    <tlLogic id="109806" type="static" programID="0" offset="0">
        <phase duration="42" state="rrrrGGGgGGgg"/>
        <phase duration="3"  state="rrrryyyyyyyy"/>
        <phase duration="42" state="GGGgGrrrrrrr"/>
        <phase duration="3"  state="yyyyyrrrrrrr"/>
    </tlLogic>
    <tlLogic id="109867" type="static" programID="0" offset="0">
        <phase duration="38" state="GggrrrGGgrrr"/>
        <phase duration="3"  state="yyyrrryyyrrr"/>
        <phase duration="37" state="rrrGggrrrGGg"/>
        <phase duration="3"  state="rrryggrrryyg"/>
        <phase duration="6"  state="rrrrGGrrrrrG"/>
        <phase duration="3"  state="rrrryyrrrrry"/>
    </tlLogic>
    <tlLogic id="110037" type="static" programID="0" offset="0">
        <phase duration="42" state="GGrr"/>
        <phase duration="3"  state="yyrr"/>
        <phase duration="42" state="rrGG"/>
        <phase duration="3"  state="rryy"/>
    </tlLogic>
    <tlLogic id="110146" type="static" programID="0" offset="0">
        <phase duration="42" state="GggggrrrrggGGgrrrr"/>
        <phase duration="3"  state="yyyyyrrrryyyyyrrrr"/>
        <phase duration="42" state="rrrrrGGggrrrrrGGgg"/>
        <phase duration="3"  state="rrrrryyyyrrrrryyyy"/>
    </tlLogic>
    <tlLogic id="110238" type="static" programID="0" offset="0">
        <phase duration="42" state="rrrrggGGgrrrrggGGg"/>
        <phase duration="3"  state="rrrryyyyyrrrryyyyy"/>
        <phase duration="42" state="GGggrrrrrGGggrrrrr"/>
        <phase duration="3"  state="yyyyrrrrryyyyrrrrr"/>
    </tlLogic>
    <tlLogic id="11767206" type="static" programID="0" offset="0">
        <phase duration="82" state="gGG"/>
        <phase duration="3"  state="yyy"/>
        <phase duration="5"  state="rrr"/>
    </tlLogic>
    <tlLogic id="1188182298" type="static" programID="0" offset="0">
        <phase duration="82" state="GGGG"/>
        <phase duration="3"  state="yyyy"/>
        <phase duration="5"  state="rrrr"/>
    </tlLogic>
    <tlLogic id="12196781" type="static" programID="0" offset="0">
        <phase duration="42" state="rrrrGGGggrrrrGGGgg"/>
        <phase duration="3"  state="rrrryyyyyrrrryyyyy"/>
        <phase duration="42" state="GGggrrrrrGGggrrrrr"/>
        <phase duration="3"  state="yyyyrrrrryyyyrrrrr"/>
    </tlLogic>
    <tlLogic id="12197066" type="static" programID="0" offset="0">
        <phase duration="42" state="rrrrGGGggrrrrGGGgg"/>
        <phase duration="3"  state="rrrryyyyyrrrryyyyy"/>
        <phase duration="42" state="GGggrrrrrGGggrrrrr"/>
        <phase duration="3"  state="yyyyrrrrryyyyrrrrr"/>
    </tlLogic>
    <tlLogic id="12237872" type="static" programID="0" offset="0">
        <phase duration="42" state="rrrrGGGggrrrrGGGgg"/>
        <phase duration="3"  state="rrrryyyyyrrrryyyyy"/>
        <phase duration="42" state="GGggrrrrrGGggrrrrr"/>
        <phase duration="3"  state="yyyyrrrrryyyyrrrrr"/>
    </tlLogic>
    <tlLogic id="12238098" type="static" programID="0" offset="0">
        <phase duration="42" state="rrrrrGGGggrrrrrGGGgg"/>
        <phase duration="3"  state="rrrrryyyyyrrrrryyyyy"/>
        <phase duration="42" state="GGGggrrrrrGGGggrrrrr"/>
        <phase duration="3"  state="yyyyyrrrrryyyyyrrrrr"/>
    </tlLogic>
    <tlLogic id="12239374" type="static" programID="0" offset="0">
        <phase duration="42" state="GGggrrrGGGg"/>
        <phase duration="3"  state="yyyyrrryyyy"/>
        <phase duration="42" state="rrrrGGgGrrr"/>
        <phase duration="3"  state="rrrryyyyrrr"/>
    </tlLogic>
    <tlLogic id="1312335310" type="static" programID="0" offset="0">
        <phase duration="38" state="GggggrrrrggGGgrrrr"/>
        <phase duration="3"  state="yyyyyrrrryyyyyrrrr"/>
        <phase duration="37" state="rrrrrGGggrrrrrGGgg"/>
        <phase duration="3"  state="rrrrryyggrrrrryygg"/>
        <phase duration="6"  state="rrrrrrrGGrrrrrrrGG"/>
        <phase duration="3"  state="rrrrrrryyrrrrrrryy"/>
    </tlLogic>
    <tlLogic id="152213" type="static" programID="0" offset="0">
        <phase duration="42" state="GggGGgrrrr"/>
        <phase duration="3"  state="yyyyyyrrrr"/>
        <phase duration="42" state="rrrrrrGGGG"/>
        <phase duration="3"  state="rrrrrryyyy"/>
    </tlLogic>
    <tlLogic id="1635914177" type="static" programID="0" offset="0">
        <phase duration="42" state="GGggrrrrGGggrrrr"/>
        <phase duration="3"  state="yyyyrrrryyyyrrrr"/>
        <phase duration="42" state="rrrrGGggrrrrGGgg"/>
        <phase duration="3"  state="rrrryyyyrrrryyyy"/>
    </tlLogic>
    <tlLogic id="1666324097" type="static" programID="0" offset="0">
        <phase duration="38" state="GgggrrrrrrrrGGGGg"/>
        <phase duration="3"  state="ygggrrrrrrrryyyyg"/>
        <phase duration="6"  state="rGGGrrrrrrrrrrrrG"/>
        <phase duration="3"  state="ryyyrrrrrrrrrrrry"/>
        <phase duration="37" state="rrrrGGGgGgggrrrrr"/>
        <phase duration="3"  state="rrrryyyyyyyyrrrrr"/>
    </tlLogic>
    <tlLogic id="1666324108" type="static" programID="0" offset="0">
        <phase duration="42" state="GGGgrrrGGgg"/>
        <phase duration="3"  state="yyyyrrryyyy"/>
        <phase duration="42" state="rrrrGGGrrrr"/>
        <phase duration="3"  state="rrrryyyrrrr"/>
    </tlLogic>
    <tlLogic id="1666324135" type="static" programID="0" offset="0">
        <phase duration="42" state="GGGggGGGggrrrrr"/>
        <phase duration="3"  state="yyyyyyyyyyrrrrr"/>
        <phase duration="42" state="GrrrrrrrrrGGGGg"/>
        <phase duration="3"  state="yrrrrrrrrryyyyy"/>
    </tlLogic>
    <tlLogic id="1666324195" type="static" programID="0" offset="0">
        <phase duration="42" state="GGGggrrrrGGGggrrrr"/>
        <phase duration="3"  state="yyyyyrrrryyyyyrrrr"/>
        <phase duration="42" state="rrrrrGGggrrrrrGGgg"/>
        <phase duration="3"  state="rrrrryyyyrrrrryyyy"/>
    </tlLogic>
    <tlLogic id="168064" type="static" programID="0" offset="0">
        <phase duration="78" state="GggGGGg"/>
        <phase duration="3"  state="yggyyyg"/>
        <phase duration="6"  state="rGGrrrG"/>
        <phase duration="3"  state="ryyrrry"/>
    </tlLogic>
    <tlLogic id="168071" type="static" programID="0" offset="0">
        <phase duration="42" state="GGggGGGgrrrr"/>
        <phase duration="3"  state="yyyyyyyyrrrr"/>
        <phase duration="42" state="rrrrrrrrGGGG"/>
        <phase duration="3"  state="rrrrrrrryyyy"/>
    </tlLogic>
    <tlLogic id="18129881" type="static" programID="0" offset="0">
        <phase duration="42" state="GGggGGGgrrrr"/>
        <phase duration="3"  state="yyyyyyyyrrrr"/>
        <phase duration="42" state="rrrrrrrrGGGG"/>
        <phase duration="3"  state="rrrrrrrryyyy"/>
    </tlLogic>
    <tlLogic id="18129886" type="static" programID="0" offset="0">
        <phase duration="38" state="rrrGggGGg"/>
        <phase duration="3"  state="rrryggyyg"/>
        <phase duration="6"  state="rrrrGGrrG"/>
        <phase duration="3"  state="rrrryyrry"/>
        <phase duration="37" state="GGgGrrrrr"/>
        <phase duration="3"  state="yyyyrrrrr"/>
    </tlLogic>
    <tlLogic id="18130199" type="static" programID="0" offset="0">
        <phase duration="40" state="GGGgGGggrrr"/>
        <phase duration="5"  state="yyyyyyyyrrr"/>
        <phase duration="40" state="GrrrrrrrGGg"/>
        <phase duration="5"  state="yrrrrrrryyy"/>
    </tlLogic>
    <tlLogic id="18130216" type="static" programID="0" offset="0">
        <phase duration="42" state="GGggrrrrGGggrrrr"/>
        <phase duration="3"  state="yyyyrrrryyyyrrrr"/>
        <phase duration="42" state="rrrrGGggrrrrGGgg"/>
        <phase duration="3"  state="rrrryyyyrrrryyyy"/>
    </tlLogic>
    <tlLogic id="18130218" type="static" programID="0" offset="0">
        <phase duration="38" state="rrrrGGGggrrrrGGGgg"/>
        <phase duration="3"  state="rrrryyyyyrrrryyyyy"/>
        <phase duration="37" state="GGggrrrrrGGggrrrrr"/>
        <phase duration="3"  state="yyggrrrrryyggrrrrr"/>
        <phase duration="6"  state="rrGGrrrrrrrGGrrrrr"/>
        <phase duration="3"  state="rryyrrrrrrryyrrrrr"/>
    </tlLogic>
    <tlLogic id="18130232" type="static" programID="0" offset="0">
        <phase duration="38" state="GgggrrrrrrrrGGGg"/>
        <phase duration="3"  state="ygggrrrrrrrryyyg"/>
        <phase duration="6"  state="rGGGrrrrrrrrrrrG"/>
        <phase duration="3"  state="ryyyrrrrrrrrrrry"/>
        <phase duration="37" state="rrrrGGGgGgggrrrr"/>
        <phase duration="3"  state="rrrryyyyyyyyrrrr"/>
    </tlLogic>
    <tlLogic id="1974138060" type="static" programID="0" offset="0">
        <phase duration="42" state="GggrrrGGg"/>
        <phase duration="3"  state="yyyrrryyy"/>
        <phase duration="42" state="rrrGGgGrr"/>
        <phase duration="3"  state="rrryyyyrr"/>
    </tlLogic>
    <tlLogic id="197697" type="static" programID="0" offset="0">
        <phase duration="42" state="GGgrrrGgg"/>
        <phase duration="3"  state="yyyrrryyy"/>
        <phase duration="42" state="rrrGGGrrr"/>
        <phase duration="3"  state="rrryyyrrr"/>
    </tlLogic>
    <tlLogic id="198236" type="static" programID="0" offset="0">
        <phase duration="38" state="GGGggrrrrGGgg"/>
        <phase duration="3"  state="yyyggrrrryygg"/>
        <phase duration="6"  state="rrrGGrrrrrrGG"/>
        <phase duration="3"  state="rrryyrrrrrryy"/>
        <phase duration="37" state="rrrrrGGGgGrrr"/>
        <phase duration="3"  state="rrrrryyyyyrrr"/>
    </tlLogic>
    <tlLogic id="198256" type="static" programID="0" offset="0">
        <phase duration="38" state="GGgrrrGggrrr"/>
        <phase duration="3"  state="yyyrrryyyrrr"/>
        <phase duration="37" state="rrrGGgrrrGgg"/>
        <phase duration="3"  state="rrryygrrrygg"/>
        <phase duration="6"  state="rrrrrGrrrrGG"/>
        <phase duration="3"  state="rrrrryrrrryy"/>
    </tlLogic>
    <tlLogic id="198376" type="static" programID="0" offset="0">
        <phase duration="42" state="GGGggGGGggrrrr"/>
        <phase duration="3"  state="yyyyyyyyyyrrrr"/>
        <phase duration="42" state="GrrrrrrrrrGGGg"/>
        <phase duration="3"  state="yrrrrrrrrryyyy"/>
    </tlLogic>
    <tlLogic id="21036395" type="static" programID="0" offset="0">
        <phase duration="42" state="GGGrrr"/>
        <phase duration="3"  state="yyyrrr"/>
        <phase duration="42" state="rrrGGG"/>
        <phase duration="3"  state="rrryyy"/>
    </tlLogic>
    <tlLogic id="212966049" type="static" programID="0" offset="0">
        <phase duration="82" state="GGG"/>
        <phase duration="3"  state="yyy"/>
        <phase duration="5"  state="rrr"/>
    </tlLogic>
    <tlLogic id="21505286" type="static" programID="0" offset="0">
        <phase duration="38" state="GGggrrrGGGgrrr"/>
        <phase duration="3"  state="yyyyrrryyyyrrr"/>
        <phase duration="37" state="rrrrGggrrrrGGg"/>
        <phase duration="3"  state="rrrryggrrrryyg"/>
        <phase duration="6"  state="rrrrrGGrrrrrrG"/>
        <phase duration="3"  state="rrrrryyrrrrrry"/>
    </tlLogic>
    <tlLogic id="21516133" type="static" programID="0" offset="0">
        <phase duration="42" state="GggrrrGGg"/>
        <phase duration="3"  state="yyyrrryyy"/>
        <phase duration="42" state="rrrGGgGrr"/>
        <phase duration="3"  state="rrryyyyrr"/>
    </tlLogic>
    <tlLogic id="21554368" type="static" programID="0" offset="0">
        <phase duration="38" state="rrGGGgggrr"/>
        <phase duration="3"  state="rryyyyyyrr"/>
        <phase duration="37" state="GgrrrrrrGg"/>
        <phase duration="3"  state="ygrrrrrryg"/>
        <phase duration="6"  state="rGrrrrrrrG"/>
        <phase duration="3"  state="ryrrrrrrry"/>
    </tlLogic>
    <tlLogic id="21651907" type="static" programID="0" offset="0">
        <phase duration="42" state="GGGgggrrr"/>
        <phase duration="3"  state="yyyyyyrrr"/>
        <phase duration="42" state="GrrrrrGGg"/>
        <phase duration="3"  state="yrrrrryyy"/>
    </tlLogic>
    <tlLogic id="21990620" type="static" programID="0" offset="0">
        <phase duration="42" state="GggrrrGGg"/>
        <phase duration="3"  state="yyyrrryyy"/>
        <phase duration="42" state="rrrGGgGrr"/>
        <phase duration="3"  state="rrryyyyrr"/>
    </tlLogic>
    <tlLogic id="2213538538" type="static" programID="0" offset="0">
        <phase duration="38" state="rrrGggGGGgrrr"/>
        <phase duration="3"  state="rrryggyyygrrr"/>
        <phase duration="6"  state="rrrrGGrrrGrrr"/>
        <phase duration="3"  state="rrrryyrrryrrr"/>
        <phase duration="37" state="GggrrrrrrrGGg"/>
        <phase duration="3"  state="yyyrrrrrrryyy"/>
    </tlLogic>
    <tlLogic id="234290" type="static" programID="0" offset="0">
        <phase duration="42" state="rrrrGGGggrrrrGGGgg"/>
        <phase duration="3"  state="rrrryyyyyrrrryyyyy"/>
        <phase duration="42" state="GGggrrrrrGGggrrrrr"/>
        <phase duration="3"  state="yyyyrrrrryyyyrrrrr"/>
    </tlLogic>
    <tlLogic id="2355068979" type="static" programID="0" offset="0">
        <phase duration="42" state="rrrrGGGggGGGgg"/>