<?xml version="1.0" encoding="UTF-8"?>

<!-- generated on 07/22/19 21:05:00 by Eclipse SUMO netedit Version v1_0_1+0383-8ba62d898b
<configuration xmlns:xsi="http://www.w3.org/2001/XMLSchema-instance" xsi:noNamespaceSchemaLocation="http://sumo.dlr.de/xsd/netconvertConfiguration.xsd">

    <input>
        <sumo-net-file value="london-seg4.net.xml"/>
    </input>

    <output>
        <output-file value="london-seg4.net.xml"/>
        <plain-output-prefix value="C:\sumo-windows10\projects\london-seg4\data\london-seg4"/>
        <output.street-names value="true"/>
    </output>

    <processing>
        <offset.disable-normalization value="true"/>
        <lefthand value="false"/>
    </processing>

    <junctions>
        <no-turnarounds value="true"/>
        <junctions.corner-detail value="5"/>
        <junctions.limit-turn-speed value="5.5"/>
        <rectangular-lane-cut value="false"/>
    </junctions>

    <pedestrian>
        <walkingareas value="false"/>
    </pedestrian>

</configuration>
-->

<nodes version="1.0" xmlns:xsi="http://www.w3.org/2001/XMLSchema-instance" xsi:noNamespaceSchemaLocation="http://sumo.dlr.de/xsd/nodes_file.xsd">
    <location netOffset="-695856.77,-5707278.62" convBoundary="0.00,0.00,8386.04,6453.28" origBoundary="-0.176478,51.480861,-0.057695,51.539079" projParameter="+proj=utm +zone=30 +ellps=WGS84 +datum=WGS84 +units=m +no_defs"/>

    <node id="1004427563" x="1644.15" y="1730.67" type="priority"/>
    <node id="101318567" x="8078.34" y="1935.92" type="priority"/>
    <node id="101319039" x="8055.35" y="2065.10" type="dead_end"/>
    <node id="101319760" x="7970.50" y="2006.57" type="right_before_left"/>
    <node id="101319761" x="8062.82" y="2025.15" type="priority"/>
    <node id="101319829" x="7975.27" y="1977.01" type="priority"/>
    <node id="101320008" x="7933.84" y="1864.67" type="right_before_left"/>
    <node id="101320010" x="7902.08" y="1853.28" type="priority"/>
    <node id="101320052" x="7944.34" y="1825.82" type="priority"/>
    <node id="101320053" x="7949.78" y="1868.88" type="priority"/>
    <node id="101320200" x="7896.15" y="1807.81" type="priority"/>
    <node id="101320375" x="7914.54" y="1742.04" type="priority"/>
    <node id="101320377" x="8023.07" y="1775.27" type="priority"/>
    <node id="101320480" x="7929.42" y="1689.08" type="priority"/>
    <node id="101320674" x="7824.77" y="1716.58" type="priority"/>
    <node id="101321246" x="7859.01" y="1944.48" type="priority"/>
    <node id="101321287" x="7845.97" y="1996.95" type="priority"/>
    <node id="101321361" x="7894.20" y="1954.41" type="priority"/>
    <node id="101321415" x="7900.72" y="1931.77" type="priority"/>
    <node id="101321461" x="7831.15" y="1911.13" type="priority"/>
    <node id="101323352" x="7848.39" y="2076.05" type="priority"/>
    <node id="101323509" x="7902.52" y="2139.51" type="right_before_left"/>
    <node id="101323623" x="7895.06" y="2191.57" type="right_before_left"/>
    <node id="101324462" x="7896.63" y="2236.07" type="priority"/>
    <node id="101330838" x="7254.34" y="1425.99" type="traffic_light" tl="101330838"/>
    <node id="101331577" x="7729.44" y="1381.68" type="priority"/>
    <node id="101331667" x="7916.20" y="1545.50" type="priority"/>
    <node id="101332575" x="7861.77" y="550.34" type="priority"/>
    <node id="1014649631" x="6536.81" y="3842.86" type="priority"/>
    <node id="1014803686" x="6821.55" y="3997.48" type="priority"/>
    <node id="1014803704" x="6844.34" y="3979.60" type="priority"/>
    <node id="1014803736" x="6719.36" y="3990.92" type="priority"/>
    <node id="1015041869" x="7931.21" y="2034.83" type="priority"/>
    <node id="1015042033" x="7932.64" y="2029.21" type="priority"/>
    <node id="1015042479" x="7851.35" y="2078.60" type="priority"/>
    <node id="1015226499" x="3018.20" y="4520.69" type="priority"/>
    <node id="101818" x="1930.30" y="5918.52" type="right_before_left"/>
    <node id="101831" x="2001.92" y="5969.52" type="traffic_light" tl="101831"/>
    <node id="101832" x="2002.08" y="5693.69" type="priority"/>
    <node id="101833" x="1185.17" y="5880.72" type="priority"/>
    <node id="101842" x="926.01" y="5754.26" type="right_before_left"/>
    <node id="101843" x="851.12" y="5849.82" type="traffic_light" tl="101843"/>
    <node id="101851" x="798.81" y="5798.63" type="priority"/>
    <node id="101852" x="733.47" y="5708.22" type="priority"/>
    <node id="101870" x="623.53" y="5251.14" type="priority"/>
    <node id="101873" x="578.71" y="5324.20" type="priority"/>
    <node id="101875" x="754.75" y="5093.37" type="priority"/>
    <node id="101877" x="884.75" y="5157.20" type="traffic_light" tl="101877"/>
    <node id="101885" x="377.19" y="5446.66" type="priority"/>
    <node id="101984" x="2186.17" y="4657.10" type="priority"/>
    <node id="101986" x="2243.49" y="4495.24" type="priority"/>
    <node id="101990" x="2021.51" y="4295.70" type="traffic_light" tl="101990"/>
    <node id="101991" x="1983.02" y="4414.57" type="traffic_light" tl="101991"/>
    <node id="101992" x="1879.67" y="4381.69" type="traffic_light" tl="GS_101992"/>
    <node id="101993" x="1916.97" y="4262.99" type="traffic_light" tl="101993"/>
    <node id="101997" x="1961.99" y="4128.56" type="traffic_light" tl="GS_101997"/>
    <node id="101998" x="2065.62" y="4161.50" type="traffic_light" tl="GS_101998"/>
    <node id="102000" x="2368.79" y="4257.54" type="traffic_light" tl="GS_102000"/>
    <node id="102003" x="1758.69" y="4066.00" type="priority"/>
    <node id="102005" x="2410.38" y="4124.56" type="priority"/>
    <node id="102010" x="1728.13" y="3865.10" type="priority"/>
    <node id="102018" x="1678.44" y="3979.07" type="right_before_left"/>
    <node id="102020" x="1500.73" y="3926.03" type="traffic_light" tl="GS_102020"/>
    <node id="1020211942" x="4932.53" y="3698.69" type="priority"/>
    <node id="102022" x="1564.85" y="3731.90" type="priority"/>
    <node id="102025" x="1427.53" y="4147.45" type="traffic_light" tl="GS_102025"/>
    <node id="102030" x="1354.68" y="3880.88" type="traffic_light" tl="GS_102030"/>
    <node id="102031" x="1254.11" y="4192.60" type="traffic_light" tl="GS_102031"/>
    <node id="102032" x="1252.70" y="3849.10" type="priority"/>
    <node id="102035" x="1099.03" y="3668.88" type="traffic_light" tl="102035"/>
    <node id="102036" x="1131.76" y="4225.35" type="right_before_left"/>
    <node id="102037" x="1063.51" y="3790.37" type="traffic_light" tl="102037"/>
    <node id="102043" x="710.89" y="3548.15" type="priority"/>
    <node id="102046" x="1062.76" y="3422.70" type="right_before_left"/>
    <node id="102047" x="1150.95" y="3436.78" type="priority"/>
    <node id="102049" x="1225.86" y="3450.54" type="priority"/>
    <node id="102051" x="1235.82" y="3369.14" type="priority"/>
    <node id="102052" x="1279.92" y="3378.49" type="traffic_light" tl="GS_102052"/>
    <node id="102053" x="1327.35" y="3423.04" type="priority"/>
    <node id="102054" x="1288.04" y="3465.94" type="priority"/>
    <node id="102059" x="638.22" y="3503.01" type="priority"/>
    <node id="1022194976" x="7722.26" y="1325.89" type="priority"/>
    <node id="1022588449" x="7851.89" y="809.13" type="priority"/>
    <node id="1022588459" x="7915.59" y="971.73" type="priority"/>
    <node id="1025502802" x="2077.81" y="2535.90" type="priority"/>
    <node id="1026069144" x="3628.41" y="2521.27" type="priority"/>
    <node id="102702286" x="7805.75" y="1821.91" type="priority"/>
    <node id="102702364" x="7717.48" y="1796.74" type="right_before_left"/>
    <node id="102702865" x="7673.36" y="1928.59" type="priority"/>
    <node id="102703219" x="7606.49" y="1858.63" type="priority"/>
    <node id="102703499" x="7540.39" y="1904.36" type="priority"/>
    <node id="102703556" x="7443.76" y="2038.39" type="priority"/>
    <node id="102705562" x="7041.34" y="2187.08" type="priority"/>
    <node id="102705658" x="7253.32" y="2086.89" type="priority"/>
    <node id="102705723" x="7093.72" y="2211.91" type="priority"/>
    <node id="102705889" x="7056.22" y="2379.85" type="priority"/>
    <node id="102706711" x="6826.76" y="2258.19" type="priority"/>
    <node id="102706712" x="6824.11" y="2358.54" type="priority"/>
    <node id="102706830" x="6674.96" y="2273.68" type="priority"/>
    <node id="102707154" x="6818.42" y="1912.45" type="priority"/>
    <node id="102707973" x="6536.50" y="1810.50" type="priority"/>
    <node id="102708117" x="6428.50" y="1878.15" type="priority"/>
    <node id="102708335" x="6651.75" y="1778.61" type="right_before_left"/>
    <node id="102708336" x="6584.77" y="1684.45" type="priority"/>
    <node id="102710925" x="5870.23" y="1793.68" type="priority"/>
    <node id="102714309" x="4932.37" y="1001.15" type="priority"/>
    <node id="102714594" x="5252.13" y="1161.73" type="priority"/>
    <node id="102715109" x="4902.16" y="978.11" type="priority"/>
    <node id="1029500418" x="4403.92" y="4666.57" type="priority"/>
    <node id="1032792757" x="5433.54" y="1387.80" type="priority"/>
    <node id="1032792770" x="5412.00" y="1373.31" type="priority"/>
    <node id="1032792773" x="5393.92" y="1381.24" type="priority"/>
    <node id="1034393452" x="3960.20" y="5456.57" type="priority"/>
    <node id="1034393471" x="3932.18" y="5442.26" type="priority"/>
    <node id="1034393478" x="4298.14" y="5605.96" type="priority"/>
    <node id="1035501160" x="5549.12" y="1433.50" type="priority"/>
    <node id="10365726" x="2855.95" y="4899.09" type="priority"/>
    <node id="10365728" x="2712.42" y="5023.98" type="right_before_left"/>
    <node id="10365729" x="2804.56" y="5087.44" type="right_before_left"/>
    <node id="10365730" x="2770.85" y="5137.09" type="right_before_left"/>
    <node id="10365731" x="2676.85" y="5070.47" type="right_before_left"/>
    <node id="10365733" x="2832.20" y="5034.68" type="right_before_left"/>
    <node id="10365735" x="2760.57" y="5152.61" type="priority"/>
    <node id="10365737" x="2833.31" y="4989.85" type="priority"/>
    <node id="10365738" x="3071.66" y="5040.32" type="priority"/>
    <node id="1038349424" x="5785.30" y="2850.82" type="priority"/>
    <node id="103928" x="2132.26" y="4916.24" type="priority"/>
    <node id="1039760426" x="5611.03" y="1860.75" type="priority"/>
    <node id="1039761165" x="5621.53" y="1718.74" type="priority"/>
    <node id="104274374" x="7388.44" y="425.36" type="priority"/>
    <node id="104274623" x="7382.66" y="470.90" type="priority"/>
    <node id="104274625" x="7288.53" y="471.42" type="priority"/>
    <node id="104274626" x="7165.28" y="469.41" type="priority"/>
    <node id="104276178" x="7627.51" y="438.21" type="priority"/>
    <node id="104276486" x="7690.20" y="451.33" type="priority"/>
    <node id="104277486" x="7732.41" y="863.07" type="priority"/>
    <node id="104277905" x="7640.46" y="776.73" type="right_before_left"/>
    <node id="104278404" x="7355.11" y="794.81" type="right_before_left"/>
    <node id="104278508" x="7319.31" y="733.53" type="priority"/>
    <node id="104278702" x="7440.33" y="957.08" type="priority"/>
    <node id="104279012" x="7174.90" y="816.24" type="priority"/>
    <node id="104279153" x="7304.84" y="986.86" type="priority"/>
    <node id="104283398" x="7913.60" y="767.22" type="priority"/>
    <node id="104283399" x="7975.33" y="775.64" type="right_before_left"/>
    <node id="104283400" x="7969.19" y="816.94" type="priority"/>
    <node id="104283808" x="8007.19" y="718.06" type="priority"/>
    <node id="104283888" x="7923.89" y="651.22" type="priority"/>
    <node id="1042862477" x="6750.74" y="4216.73" type="priority"/>
    <node id="1042862785" x="6855.73" y="4154.02" type="priority"/>
    <node id="104287941" x="8080.54" y="653.76" type="right_before_left"/>
    <node id="1043001422" x="6561.66" y="3741.89" type="priority"/>
    <node id="104301646" x="8161.08" y="347.46" type="priority"/>
    <node id="104301649" x="8009.58" y="418.87" type="priority"/>
    <node id="104301650" x="7978.94" y="369.20" type="priority"/>
    <node id="104302" x="3227.43" y="4319.54" type="traffic_light" tl="104302"/>
    <node id="104305" x="3860.66" y="4740.71" type="right_before_left"/>
    <node id="104306719" x="8004.67" y="1336.02" type="priority"/>
    <node id="104308558" x="8005.75" y="1071.24" type="right_before_left"/>
    <node id="104309" x="4283.10" y="4709.21" type="priority"/>
    <node id="104309492" x="8035.35" y="951.60" type="right_before_left"/>
    <node id="104309576" x="8000.65" y="955.41" type="right_before_left"/>
    <node id="104309577" x="8004.30" y="988.45" type="priority"/>
    <node id="104309652" x="7916.76" y="983.53" type="right_before_left"/>
    <node id="104309680" x="7961.03" y="996.24" type="priority"/>
    <node id="104309967" x="7915.90" y="938.91" type="right_before_left"/>
    <node id="104309969" x="7861.21" y="953.63" type="priority"/>
    <node id="104309983" x="8060.49" y="956.50" type="priority"/>
    <node id="104310" x="4314.98" y="4655.08" type="priority"/>
    <node id="104311221" x="7987.88" y="890.12" type="right_before_left"/>
    <node id="104311223" x="7991.48" y="925.11" type="priority"/>
    <node id="104311336" x="8058.28" y="877.86" type="priority"/>
    <node id="104311339" x="7946.82" y="897.75" type="priority"/>
    <node id="104311818" x="8014.63" y="876.05" type="priority"/>
    <node id="104311882" x="8007.50" y="825.26" type="priority"/>
    <node id="104312" x="4402.85" y="4493.34" type="traffic_light" tl="GS_104312"/>
    <node id="104312013" x="7889.90" y="895.18" type="priority"/>
    <node id="104312069" x="7930.26" y="873.02" type="priority"/>
    <node id="104313" x="4464.51" y="4355.10" type="priority"/>
    <node id="104313424" x="7283.45" y="674.61" type="priority"/>
    <node id="104314126" x="7027.97" y="459.77" type="priority"/>
    <node id="104314141" x="7102.84" y="452.71" type="right_before_left"/>
    <node id="104314192" x="7092.55" y="329.51" type="priority"/>
    <node id="104314275" x="7297.72" y="348.83" type="priority"/>
    <node id="104315" x="4552.83" y="4127.62" type="traffic_light" tl="104315"/>
    <node id="104316" x="4738.88" y="4104.74" type="priority"/>
    <node id="104316410" x="6992.66" y="904.66" type="right_before_left"/>
    <node id="104316411" x="6957.36" y="929.12" type="right_before_left"/>
    <node id="104316413" x="6932.47" y="899.60" type="right_before_left"/>
    <node id="104316813" x="7081.67" y="895.50" type="priority"/>
    <node id="104316818" x="7031.25" y="776.94" type="right_before_left"/>
    <node id="104316988" x="6874.70" y="825.40" type="right_before_left"/>
    <node id="104316989" x="6866.65" y="832.81" type="priority"/>
    <node id="104317020" x="6883.40" y="831.70" type="priority"/>
    <node id="104317258" x="6860.05" y="624.25" type="priority"/>
    <node id="104317414" x="6751.58" y="770.50" type="right_before_left"/>
    <node id="104317416" x="6846.73" y="838.57" type="priority"/>
    <node id="104317586" x="6658.51" y="610.47" type="priority"/>
    <node id="104317840" x="6555.35" y="708.51" type="right_before_left"/>
    <node id="104317841" x="6569.89" y="719.18" type="priority"/>
    <node id="104317870" x="6537.15" y="491.14" type="priority"/>
    <node id="104317873" x="6518.97" y="752.88" type="priority"/>
    <node id="104318" x="5214.87" y="3938.16" type="traffic_light" tl="104318"/>
    <node id="104318158" x="6467.22" y="451.58" type="priority"/>
    <node id="104318265" x="6408.95" y="520.99" type="right_before_left"/>
    <node id="104318369" x="6335.83" y="471.58" type="priority"/>
    <node id="104318373" x="6276.80" y="432.84" type="priority"/>
    <node id="104319" x="5437.29" y="3849.10" type="priority"/>
    <node id="104319091" x="6272.63" y="689.11" type="priority"/>
    <node id="104319288" x="6228.03" y="570.61" type="priority"/>
    <node id="104319741" x="6389.96" y="690.61" type="right_before_left"/>
    <node id="104320" x="5572.28" y="3783.63" type="priority"/>
    <node id="104321802" x="6568.85" y="1666.88" type="priority"/>
    <node id="104321806" x="6527.63" y="1468.26" type="priority"/>
    <node id="104321969" x="6715.63" y="1487.91" type="priority"/>
    <node id="104322" x="5891.97" y="3695.79" type="traffic_light" tl="104322"/>
    <node id="104322405" x="6686.70" y="1516.20" type="priority"/>
    <node id="104322465" x="6682.27" y="1565.78" type="priority"/>
    <node id="104322720" x="6703.05" y="1580.75" type="priority"/>
    <node id="104323" x="7079.89" y="3770.56" type="priority"/>
    <node id="104323330" x="6834.35" y="1721.95" type="priority"/>
    <node id="104323826" x="6850.39" y="1540.10" type="right_before_left"/>
    <node id="104324051" x="6952.77" y="1428.46" type="priority"/>
    <node id="104324281" x="6986.72" y="1480.85" type="priority"/>
    <node id="104324352" x="7006.92" y="1524.70" type="right_before_left"/>
    <node id="104324354" x="7120.88" y="1437.98" type="priority"/>
    <node id="104325230" x="7100.37" y="1305.61" type="priority"/>
    <node id="104325615" x="7211.90" y="1331.52" type="priority"/>
    <node id="104325718" x="7243.03" y="1317.26" type="right_before_left"/>
    <node id="104326" x="7331.34" y="3868.62" type="priority"/>
    <node id="104326180" x="7327.70" y="1251.58" type="priority"/>
    <node id="104326184" x="7387.71" y="1252.21" type="right_before_left"/>
    <node id="104326407" x="7364.30" y="1136.99" type="right_before_left"/>
    <node id="104326567" x="7452.09" y="1240.45" type="right_before_left"/>
    <node id="104326671" x="7432.51" y="1121.59" type="right_before_left"/>
    <node id="104327" x="7429.75" y="3902.45" type="priority"/>
    <node id="104327070" x="7519.53" y="1229.67" type="right_before_left"/>
    <node id="1043273778" x="3931.19" y="5529.03" type="priority"/>
    <node id="104328662" x="7398.39" y="1334.63" type="priority"/>
    <node id="104329209" x="7570.74" y="1277.49" type="priority"/>
    <node id="104329210" x="7617.97" y="1270.11" type="right_before_left"/>
    <node id="104329211" x="7633.75" y="1405.51" type="priority"/>
    <node id="104329316" x="7609.40" y="1158.53" type="priority"/>
    <node id="104329317" x="7600.09" y="1090.31" type="right_before_left"/>
    <node id="104329439" x="7701.39" y="1132.23" type="right_before_left"/>
    <node id="104329440" x="7693.06" y="1073.32" type="right_before_left"/>
    <node id="104329522" x="7708.18" y="1198.20" type="right_before_left"/>
    <node id="104329523" x="7866.53" y="1120.82" type="right_before_left"/>
    <node id="104329576" x="7868.11" y="1181.73" type="priority"/>
    <node id="104329795" x="7803.69" y="1248.50" type="right_before_left"/>
    <node id="104329796" x="7810.62" y="1304.29" type="priority"/>
    <node id="104329798" x="7721.88" y="1321.04" type="right_before_left"/>
    <node id="104329899" x="7714.16" y="1260.10" type="right_before_left"/>
    <node id="104329900" x="7868.23" y="1241.88" type="priority"/>
    <node id="104329962" x="7666.29" y="1204.03" type="right_before_left"/>
    <node id="104330255" x="7776.54" y="1222.13" type="priority"/>
    <node id="104330257" x="7778.92" y="1251.98" type="right_before_left"/>
    <node id="104330326" x="7733.70" y="1129.96" type="priority"/>
    <node id="104330387" x="7785.74" y="1126.69" type="priority"/>
    <node id="104330739" x="7934.00" y="1242.57" type="right_before_left"/>
    <node id="104331092" x="7933.60" y="1070.12" type="right_before_left"/>
    <node id="104331583" x="7898.53" y="1131.67" type="priority"/>
    <node id="104336345" x="7808.03" y="937.89" type="right_before_left"/>
    <node id="104336347" x="7858.88" y="910.34" type="priority"/>
    <node id="104336433" x="7724.90" y="950.11" type="right_before_left"/>
    <node id="104336435" x="7791.79" y="871.61" type="right_before_left"/>
    <node id="104336437" x="7820.95" y="829.69" type="priority"/>
    <node id="104336592" x="7763.06" y="898.64" type="right_before_left"/>
    <node id="104336714" x="7643.69" y="963.88" type="right_before_left"/>
    <node id="104336716" x="7638.71" y="939.27" type="priority"/>
    <node id="104336776" x="7603.05" y="969.70" type="right_before_left"/>
    <node id="104336777" x="7605.56" y="1006.98" type="priority"/>
    <node id="104336834" x="7565.17" y="966.75" type="priority"/>
    <node id="104336835" x="7554.89" y="968.20" type="right_before_left"/>
    <node id="104336836" x="7551.92" y="945.91" type="priority"/>
    <node id="104336866" x="7694.53" y="886.16" type="priority"/>
    <node id="104336867" x="7712.84" y="905.94" type="right_before_left"/>
    <node id="104336931" x="7480.69" y="981.15" type="right_before_left"/>
    <node id="104337042" x="7541.60" y="1024.66" type="right_before_left"/>
    <node id="104337043" x="7537.74" y="1001.88" type="priority"/>
    <node id="104337144" x="7440.19" y="989.96" type="right_before_left"/>
    <node id="104337146" x="7448.36" y="1019.13" type="priority"/>
    <node id="104337147" x="7450.67" y="1045.41" type="right_before_left"/>
    <node id="104337149" x="7544.56" y="1040.24" type="priority"/>
    <node id="104337423" x="7371.40" y="970.14" type="priority"/>
    <node id="104337454" x="7342.85" y="1021.20" type="right_before_left"/>
    <node id="104337455" x="7348.01" y="1041.46" type="priority"/>
    <node id="104337525" x="7314.56" y="1025.47" type="priority"/>
    <node id="104337528" x="7308.02" y="996.98" type="priority"/>
    <node id="104337635" x="7290.78" y="1033.70" type="right_before_left"/>
    <node id="104337636" x="7301.50" y="1059.76" type="priority"/>
    <node id="104338077" x="7204.35" y="1127.22" type="right_before_left"/>
    <node id="104338123" x="7233.85" y="1062.93" type="right_before_left"/>
    <node id="104338128" x="7291.74" y="1115.10" type="right_before_left"/>
    <node id="104338130" x="7279.86" y="1080.50" type="right_before_left"/>
    <node id="104338352" x="7374.35" y="1091.61" type="right_before_left"/>
    <node id="104338356" x="7340.34" y="1074.55" type="priority"/>
    <node id="104338387" x="7456.43" y="1071.84" type="right_before_left"/>
    <node id="104338391" x="7327.49" y="1106.84" type="priority"/>
    <node id="104338454" x="7468.77" y="1114.91" type="right_before_left"/>
    <node id="104338824" x="7502.26" y="1071.80" type="priority"/>
    <node id="104338827" x="7560.57" y="1053.40" type="priority"/>
    <node id="104339091" x="7218.09" y="1156.78" type="right_before_left"/>
    <node id="104339158" x="7166.19" y="1142.51" type="priority"/>
    <node id="104339159" x="7174.70" y="1172.45" type="right_before_left"/>
    <node id="104340163" x="6898.87" y="1116.79" type="right_before_left"/>
    <node id="104340252" x="7032.08" y="1008.44" type="priority"/>
    <node id="104340578" x="6834.76" y="1198.14" type="priority"/>
    <node id="104341030" x="6951.29" y="1253.37" type="priority"/>
    <node id="104341397" x="6857.58" y="1323.22" type="priority"/>
    <node id="104342248" x="6569.70" y="1501.19" type="priority"/>
    <node id="104342433" x="6678.95" y="1463.02" type="priority"/>
    <node id="104351637" x="7097.10" y="2062.41" type="right_before_left"/>
    <node id="104351638" x="7163.39" y="2084.91" type="priority"/>
    <node id="104351873" x="7115.02" y="1995.32" type="priority"/>
    <node id="104351874" x="7119.97" y="1961.00" type="priority"/>
    <node id="104352374" x="6966.26" y="2030.76" type="right_before_left"/>
    <node id="104352375" x="6984.62" y="2108.51" type="priority"/>
    <node id="104352376" x="6996.95" y="2173.27" type="right_before_left"/>
    <node id="104352476" x="6858.78" y="2030.18" type="priority"/>
    <node id="104352478" x="6947.00" y="1927.72" type="priority"/>
    <node id="104352541" x="6889.98" y="1923.85" type="priority"/>
    <node id="104352679" x="6913.96" y="1951.30" type="priority"/>
    <node id="104352680" x="6841.96" y="1966.26" type="priority"/>
    <node id="104353029" x="7031.25" y="1944.09" type="priority"/>
    <node id="104353417" x="7202.04" y="1877.35" type="right_before_left"/>
    <node id="104353418" x="7139.57" y="1859.72" type="right_before_left"/>
    <node id="104353484" x="7254.65" y="1890.22" type="right_before_left"/>
    <node id="104353559" x="7263.04" y="1858.31" type="priority"/>
    <node id="104353616" x="7294.87" y="1756.48" type="priority"/>
    <node id="104353654" x="7189.70" y="1975.28" type="priority"/>
    <node id="104353744" x="7099.65" y="1866.50" type="priority"/>
    <node id="104353918" x="6925.99" y="1784.63" type="right_before_left"/>
    <node id="104353919" x="6936.66" y="1822.78" type="priority"/>
    <node id="104354031" x="7029.87" y="1797.34" type="right_before_left"/>
    <node id="104354231" x="6732.36" y="1811.36" type="priority"/>
    <node id="104354236" x="6736.70" y="1851.13" type="right_before_left"/>
    <node id="104354995" x="7379.85" y="1848.56" type="priority"/>
    <node id="104354996" x="7407.30" y="1892.16" type="right_before_left"/>
    <node id="104354999" x="7512.80" y="1810.92" type="priority"/>
    <node id="104355001" x="7521.24" y="1782.34" type="right_before_left"/>
    <node id="104355003" x="7346.89" y="1746.92" type="right_before_left"/>
    <node id="104355004" x="7275.41" y="1729.20" type="right_before_left"/>
    <node id="104355164" x="7360.11" y="1842.84" type="priority"/>
    <node id="104355607" x="7298.62" y="1975.73" type="priority"/>
    <node id="104355691" x="7276.43" y="1991.34" type="priority"/>
    <node id="104356552" x="7368.04" y="1650.79" type="priority"/>
    <node id="104356556" x="7363.03" y="1671.88" type="priority"/>
    <node id="104356782" x="7539.96" y="1716.11" type="priority"/>
    <node id="104356888" x="7518.11" y="1668.75" type="priority"/>
    <node id="104356889" x="7549.16" y="1677.82" type="priority"/>
    <node id="104356891" x="7627.62" y="1734.78" type="priority"/>
    <node id="104356978" x="7685.34" y="1785.64" type="priority"/>
    <node id="104357323" x="7464.70" y="1650.50" type="priority"/>
    <node id="104357325" x="7557.10" y="1643.75" type="priority"/>
    <node id="104357458" x="7399.86" y="1586.01" type="priority"/>
    <node id="104358047" x="7594.88" y="1553.02" type="priority"/>
    <node id="104358049" x="7623.00" y="1467.00" type="right_before_left"/>
    <node id="104358050" x="7558.72" y="1447.78" type="right_before_left"/>
    <node id="104358264" x="7677.06" y="1457.87" type="priority"/>
    <node id="104358265" x="7756.67" y="1443.19" type="priority"/>
    <node id="104358267" x="7755.22" y="1383.92" type="priority"/>
    <node id="104358291" x="7707.97" y="1582.20" type="priority"/>
    <node id="104358311" x="7765.08" y="1524.47" type="priority"/>
    <node id="104358448" x="7873.72" y="1435.07" type="priority"/>
    <node id="104358646" x="7873.53" y="1428.49" type="priority"/>
    <node id="104358876" x="7660.99" y="1680.38" type="priority"/>
    <node id="104358877" x="7560.94" y="1650.35" type="priority"/>
    <node id="104359625" x="7216.28" y="1511.93" type="priority"/>
    <node id="104360076" x="7369.79" y="1532.44" type="priority"/>
    <node id="104360081" x="7262.82" y="1477.72" type="priority"/>
    <node id="104387" x="4184.89" y="2167.59" type="priority"/>
    <node id="104391" x="3729.56" y="604.93" type="priority"/>
    <node id="104392" x="3823.70" y="566.68" type="priority"/>
    <node id="104397" x="1910.46" y="1600.43" type="right_before_left"/>
    <node id="104399" x="1806.26" y="1703.22" type="priority"/>
    <node id="104412" x="760.70" y="4723.40" type="priority"/>
    <node id="104414" x="1029.28" y="4852.82" type="right_before_left"/>
    <node id="1046391033" x="6081.31" y="3491.21" type="priority"/>
    <node id="10512501" x="5748.58" y="5383.62" type="right_before_left"/>
    <node id="10512503" x="5872.00" y="5301.14" type="priority"/>
    <node id="10512858" x="5203.24" y="5351.40" type="priority"/>
    <node id="10529802" x="5847.03" y="5384.00" type="priority"/>
    <node id="10529803" x="5960.10" y="5412.47" type="priority"/>
    <node id="10529804" x="6078.22" y="5421.01" type="priority"/>
    <node id="10529806" x="5819.56" y="6383.05" type="priority"/>
    <node id="10529810" x="6193.08" y="6189.85" type="priority"/>
    <node id="10530334" x="6876.55" y="5235.35" type="right_before_left"/>
    <node id="10530335" x="6512.32" y="5149.65" type="priority"/>
    <node id="10530339" x="6960.99" y="5329.77" type="priority"/>
    <node id="10534456" x="4712.10" y="4516.71" type="priority"/>
    <node id="10534459" x="4772.96" y="4268.94" type="priority"/>
    <node id="1054486253" x="6022.21" y="2606.41" type="priority"/>
    <node id="105511" x="2322.09" y="4243.10" type="priority"/>
    <node id="105689699" x="6141.75" y="551.43" type="right_before_left"/>
    <node id="105689702" x="6240.93" y="533.17" type="right_before_left"/>
    <node id="105689762" x="6177.55" y="566.54" type="priority"/>
    <node id="105689891" x="6195.47" y="401.20" type="right_before_left"/>
    <node id="105689892" x="6225.64" y="407.76" type="priority"/>
    <node id="105690011" x="6077.21" y="388.76" type="right_before_left"/>
    <node id="105690397" x="6231.59" y="453.23" type="priority"/>
    <node id="105690398" x="6185.32" y="431.15" type="priority"/>
    <node id="10572163" x="4429.07" y="2801.90" type="priority"/>
    <node id="10572166" x="4913.21" y="3014.21" type="priority"/>
    <node id="10572178" x="5289.50" y="3594.04" type="right_before_left"/>
    <node id="10572180" x="5170.45" y="3622.62" type="priority"/>
    <node id="10572785" x="4457.87" y="3994.66" type="priority"/>
    <node id="10572786" x="4554.40" y="3802.97" type="priority"/>
    <node id="10574746" x="3987.68" y="3462.02" type="right_before_left"/>
    <node id="10574748" x="3436.18" y="3153.42" type="priority"/>
    <node id="10574749" x="3613.46" y="3159.85" type="right_before_left"/>