<nodes>
	<node id="cell0_0" x="1810.640000" y="5656.710000" type="priority"/>
	<node id="cell0_1" x="1910.640000" y="5656.710000" type="priority"/>
	<node id="cell0_2" x="2010.640000" y="5656.710000" type="priority"/>
	<node id="cell0_3" x="2110.640000" y="5656.710000" type="priority"/>
	<node id="cell0_4" x="2210.640000" y="5656.710000" type="priority"/>
	<node id="cell0_5" x="2310.640000" y="5656.710000" type="priority"/>
	<node id="cell0_6" x="2410.640000" y="5656.710000" type="priority"/>
	<node id="cell0_7" x="2510.640000" y="5656.710000" type="priority"/>
	<node id="cell0_8" x="2610.640000" y="5656.710000" type="priority"/>
	<node id="cell0_9" x="2710.640000" y="5656.710000" type="priority"/>
	<node id="cell0_10" x="2810.640000" y="5656.710000" type="priority"/>
	<node id="cell0_11" x="2910.640000" y="5656.710000" type="priority"/>
	<node id="cell0_12" x="3010.640000" y="5656.710000" type="priority"/>
	<node id="cell0_13" x="3110.640000" y="5656.710000" type="priority"/>
	<node id="cell0_14" x="3210.640000" y="5656.710000" type="priority"/>
	<node id="cell0_15" x="3310.640000" y="5656.710000" type="priority"/>
	<node id="cell0_16" x="3410.640000" y="5656.710000" type="priority"/>
	<node id="cell0_17" x="3510.640000" y="5656.710000" type="priority"/>
	<node id="cell0_18" x="3610.640000" y="5656.710000" type="priority"/>
	<node id="cell0_19" x="3710.640000" y="5656.710000" type="priority"/>
	<node id="cell0_20" x="3810.640000" y="5656.710000" type="priority"/>
	<node id="cell0_21" x="3910.640000" y="5656.710000" type="priority"/>
	<node id="cell0_22" x="4010.640000" y="5656.710000" type="priority"/>
	<node id="cell0_23" x="4110.640000" y="5656.710000" type="priority"/>
	<node id="cell0_24" x="4210.640000" y="5656.710000" type="priority"/>
	<node id="cell0_25" x="4310.640000" y="5656.710000" type="priority"/>
	<node id="cell0_26" x="4410.640000" y="5656.710000" type="priority"/>
	<node id="cell0_27" x="4510.640000" y="5656.710000" type="priority"/>
	<node id="cell0_28" x="4610.640000" y="5656.710000" type="priority"/>
	<node id="cell0_29" x="4710.640000" y="5656.710000" type="priority"/>
	<node id="cell0_30" x="4810.640000" y="5656.710000" type="priority"/>
	<node id="cell0_31" x="4910.640000" y="5656.710000" type="priority"/>
	<node id="cell0_32" x="5010.640000" y="5656.710000" type="priority"/>
	<node id="cell0_33" x="5110.640000" y="5656.710000" type="priority"/>
	<node id="cell0_34" x="5210.640000" y="5656.710000" type="priority"/>
	<node id="cell0_35" x="5310.640000" y="5656.710000" type="priority"/>
	<node id="cell0_36" x="5410.640000" y="5656.710000" type="priority"/>
	<node id="cell0_37" x="5510.640000" y="5656.710000" type="priority"/>
	<node id="cell0_38" x="5610.640000" y="5656.710000" type="priority"/>
	<node id="cell0_39" x="5710.640000" y="5656.710000" type="priority"/>
	<node id="cell0_40" x="5810.640000" y="5656.710000" type="priority"/>
	<node id="cell0_41" x="5910.640000" y="5656.710000" type="priority"/>
	<node id="cell0_42" x="6010.640000" y="5656.710000" type="priority"/>
	<node id="cell0_43" x="6110.640000" y="5656.710000" type="priority"/>
	<node id="cell0_44" x="6210.640000" y="5656.710000" type="priority"/>
	<node id="cell0_45" x="6310.640000" y="5656.710000" type="priority"/>
	<node id="cell0_46" x="6410.640000" y="5656.710000" type="priority"/>
	<node id="cell0_47" x="6510.640000" y="5656.710000" type="priority"/>
	<node id="cell0_48" x="6610.640000" y="5656.710000" type="priority"/>
	<node id="cell0_49" x="6710.640000" y="5656.710000" type="priority"/>
	<node id="cell0_50" x="6810.640000" y="5656.710000" type="priority"/>
	<node id="cell0_51" x="6910.640000" y="5656.710000" type="priority"/>
	<node id="cell1_0" x="1810.640000" y="5556.710000" type="priority"/>
	<node id="cell1_1" x="1910.640000" y="5556.710000" type="priority"/>
	<node id="cell1_2" x="2010.640000" y="5556.710000" type="priority"/>
	<node id="cell1_3" x="2110.640000" y="5556.710000" type="priority"/>
	<node id="cell1_4" x="2210.640000" y="5556.710000" type="priority"/>
	<node id="cell1_5" x="2310.640000" y="5556.710000" type="priority"/>
	<node id="cell1_6" x="2410.640000" y="5556.710000" type="priority"/>
	<node id="cell1_7" x="2510.640000" y="5556.710000" type="priority"/>
	<node id="cell1_8" x="2610.640000" y="5556.710000" type="priority"/>
	<node id="cell1_9" x="2710.640000" y="5556.710000" type="priority"/>
	<node id="cell1_10" x="2810.640000" y="5556.710000" type="priority"/>
	<node id="cell1_11" x="2910.640000" y="5556.710000" type="priority"/>
	<node id="cell1_12" x="3010.640000" y="5556.710000" type="priority"/>
	<node id="cell1_13" x="3110.640000" y="5556.710000" type="priority"/>
	<node id="cell1_14" x="3210.640000" y="5556.710000" type="priority"/>
	<node id="cell1_15" x="3310.640000" y="5556.710000" type="priority"/>
	<node id="cell1_16" x="3410.640000" y="5556.710000" type="priority"/>
	<node id="cell1_17" x="3510.640000" y="5556.710000" type="priority"/>
	<node id="cell1_18" x="3610.640000" y="5556.710000" type="priority"/>
	<node id="cell1_19" x="3710.640000" y="5556.710000" type="priority"/>
	<node id="cell1_20" x="3810.640000" y="5556.710000" type="priority"/>
	<node id="cell1_21" x="3910.640000" y="5556.710000" type="priority"/>
	<node id="cell1_22" x="4010.640000" y="5556.710000" type="priority"/>
	<node id="cell1_23" x="4110.640000" y="5556.710000" type="priority"/>
	<node id="cell1_24" x="4210.640000" y="5556.710000" type="priority"/>
	<node id="cell1_25" x="4310.640000" y="5556.710000" type="priority"/>
	<node id="cell1_26" x="4410.640000" y="5556.710000" type="priority"/>
	<node id="cell1_27" x="4510.640000" y="5556.710000" type="priority"/>
	<node id="cell1_28" x="4610.640000" y="5556.710000" type="priority"/>
	<node id="cell1_29" x="4710.640000" y="5556.710000" type="priority"/>
	<node id="cell1_30" x="4810.640000" y="5556.710000" type="priority"/>
	<node id="cell1_31" x="4910.640000" y="5556.710000" type="priority"/>
	<node id="cell1_32" x="5010.640000" y="5556.710000" type="priority"/>
	<node id="cell1_33" x="5110.640000" y="5556.710000" type="priority"/>
	<node id="cell1_34" x="5210.640000" y="5556.710000" type="priority"/>
	<node id="cell1_35" x="5310.640000" y="5556.710000" type="priority"/>
	<node id="cell1_36" x="5410.640000" y="5556.710000" type="priority"/>
	<node id="cell1_37" x="5510.640000" y="5556.710000" type="priority"/>
	<node id="cell1_38" x="5610.640000" y="5556.710000" type="priority"/>
	<node id="cell1_39" x="5710.640000" y="5556.710000" type="priority"/>
	<node id="cell1_40" x="5810.640000" y="5556.710000" type="priority"/>
	<node id="cell1_41" x="5910.640000" y="5556.710000" type="priority"/>
	<node id="cell1_42" x="6010.640000" y="5556.710000" type="priority"/>
	<node id="cell1_43" x="6110.640000" y="5556.710000" type="priority"/>
	<node id="cell1_44" x="6210.640000" y="5556.710000" type="priority"/>
	<node id="cell1_45" x="6310.640000" y="5556.710000" type="priority"/>
	<node id="cell1_46" x="6410.640000" y="5556.710000" type="priority"/>
	<node id="cell1_47" x="6510.640000" y="5556.710000" type="priority"/>
	<node id="cell1_48" x="6610.640000" y="5556.710000" type="priority"/>
	<node id="cell1_49" x="6710.640000" y="5556.710000" type="priority"/>
	<node id="cell1_50" x="6810.640000" y="5556.710000" type="priority"/>
	<node id="cell1_51" x="6910.640000" y="5556.710000" type="priority"/>
	<node id="cell2_0" x="1810.640000" y="5456.710000" type="priority"/>
	<node id="cell2_1" x="1910.640000" y="5456.710000" type="priority"/>
	<node id="cell2_2" x="2010.640000" y="5456.710000" type="priority"/>
	<node id="cell2_3" x="2110.640000" y="5456.710000" type="priority"/>
	<node id="cell2_4" x="2210.640000" y="5456.710000" type="priority"/>
	<node id="cell2_5" x="2310.640000" y="5456.710000" type="priority"/>
	<node id="cell2_6" x="2410.640000" y="5456.710000" type="priority"/>
	<node id="cell2_7" x="2510.640000" y="5456.710000" type="priority"/>
	<node id="cell2_8" x="2610.640000" y="5456.710000" type="priority"/>
	<node id="cell2_9" x="2710.640000" y="5456.710000" type="priority"/>
	<node id="cell2_10" x="2810.640000" y="5456.710000" type="priority"/>
	<node id="cell2_11" x="2910.640000" y="5456.710000" type="priority"/>
	<node id="cell2_12" x="3010.640000" y="5456.710000" type="priority"/>
	<node id="cell2_13" x="3110.640000" y="5456.710000" type="priority"/>
	<node id="cell2_14" x="3210.640000" y="5456.710000" type="priority"/>
	<node id="cell2_15" x="3310.640000" y="5456.710000" type="priority"/>
	<node id="cell2_16" x="3410.640000" y="5456.710000" type="priority"/>
	<node id="cell2_17" x="3510.640000" y="5456.710000" type="priority"/>
	<node id="cell2_18" x="3610.640000" y="5456.710000" type="priority"/>
	<node id="cell2_19" x="3710.640000" y="5456.710000" type="priority"/>
	<node id="cell2_20" x="3810.640000" y="5456.710000" type="priority"/>
	<node id="cell2_21" x="3910.640000" y="5456.710000" type="priority"/>
	<node id="cell2_22" x="4010.640000" y="5456.710000" type="priority"/>
	<node id="cell2_23" x="4110.640000" y="5456.710000" type="priority"/>
	<node id="cell2_24" x="4210.640000" y="5456.710000" type="priority"/>
	<node id="cell2_25" x="4310.640000" y="5456.710000" type="priority"/>
	<node id="cell2_26" x="4410.640000" y="5456.710000" type="priority"/>
	<node id="cell2_27" x="4510.640000" y="5456.710000" type="priority"/>
	<node id="cell2_28" x="4610.640000" y="5456.710000" type="priority"/>
	<node id="cell2_29" x="4710.640000" y="5456.710000" type="priority"/>
	<node id="cell2_30" x="4810.640000" y="5456.710000" type="priority"/>
	<node id="cell2_31" x="4910.640000" y="5456.710000" type="priority"/>
	<node id="cell2_32" x="5010.640000" y="5456.710000" type="priority"/>
	<node id="cell2_33" x="5110.640000" y="5456.710000" type="priority"/>
	<node id="cell2_34" x="5210.640000" y="5456.710000" type="priority"/>
	<node id="cell2_35" x="5310.640000" y="5456.710000" type="priority"/>
	<node id="cell2_36" x="5410.640000" y="5456.710000" type="priority"/>
	<node id="cell2_37" x="5510.640000" y="5456.710000" type="priority"/>
	<node id="cell2_38" x="5610.640000" y="5456.710000" type="priority"/>
	<node id="cell2_39" x="5710.640000" y="5456.710000" type="priority"/>
	<node id="cell2_40" x="5810.640000" y="5456.710000" type="priority"/>
	<node id="cell2_41" x="5910.640000" y="5456.710000" type="priority"/>
	<node id="cell2_42" x="6010.640000" y="5456.710000" type="priority"/>
	<node id="cell2_43" x="6110.640000" y="5456.710000" type="priority"/>
	<node id="cell2_44" x="6210.640000" y="5456.710000" type="priority"/>
	<node id="cell2_45" x="6310.640000" y="5456.710000" type="priority"/>
	<node id="cell2_46" x="6410.640000" y="5456.710000" type="priority"/>
	<node id="cell2_47" x="6510.640000" y="5456.710000" type="priority"/>
	<node id="cell2_48" x="6610.640000" y="5456.710000" type="priority"/>
	<node id="cell2_49" x="6710.640000" y="5456.710000" type="priority"/>
	<node id="cell2_50" x="6810.640000" y="5456.710000" type="priority"/>
	<node id="cell2_51" x="6910.640000" y="5456.710000" type="priority"/>
	<node id="cell3_0" x="1810.640000" y="5356.710000" type="priority"/>
	<node id="cell3_1" x="1910.640000" y="5356.710000" type="priority"/>
	<node id="cell3_2" x="2010.640000" y="5356.710000" type="priority"/>
	<node id="cell3_3" x="2110.640000" y="5356.710000" type="priority"/>
	<node id="cell3_4" x="2210.640000" y="5356.710000" type="priority"/>
	<node id="cell3_5" x="2310.640000" y="5356.710000" type="priority"/>
	<node id="cell3_6" x="2410.640000" y="5356.710000" type="priority"/>
	<node id="cell3_7" x="2510.640000" y="5356.710000" type="priority"/>
	<node id="cell3_8" x="2610.640000" y="5356.710000" type="priority"/>
	<node id="cell3_9" x="2710.640000" y="5356.710000" type="priority"/>
	<node id="cell3_10" x="2810.640000" y="5356.710000" type="priority"/>
	<node id="cell3_11" x="2910.640000" y="5356.710000" type="priority"/>
	<node id="cell3_12" x="3010.640000" y="5356.710000" type="priority"/>
	<node id="cell3_13" x="3110.640000" y="5356.710000" type="priority"/>
	<node id="cell3_14" x="3210.640000" y="5356.710000" type="priority"/>
	<node id="cell3_15" x="3310.640000" y="5356.710000" type="priority"/>
	<node id="cell3_16" x="3410.640000" y="5356.710000" type="priority"/>
	<node id="cell3_17" x="3510.640000" y="5356.710000" type="priority"/>
	<node id="cell3_18" x="3610.640000" y="5356.710000" type="priority"/>
	<node id="cell3_19" x="3710.640000" y="5356.710000" type="priority"/>
	<node id="cell3_20" x="3810.640000" y="5356.710000" type="priority"/>
	<node id="cell3_21" x="3910.640000" y="5356.710000" type="priority"/>
	<node id="cell3_22" x="4010.640000" y="5356.710000" type="priority"/>
	<node id="cell3_23" x="4110.640000" y="5356.710000" type="priority"/>
	<node id="cell3_24" x="4210.640000" y="5356.710000" type="priority"/>
	<node id="cell3_25" x="4310.640000" y="5356.710000" type="priority"/>
	<node id="cell3_26" x="4410.640000" y="5356.710000" type="priority"/>
	<node id="cell3_27" x="4510.640000" y="5356.710000" type="priority"/>
	<node id="cell3_28" x="4610.640000" y="5356.710000" type="priority"/>
	<node id="cell3_29" x="4710.640000" y="5356.710000" type="priority"/>
	<node id="cell3_30" x="4810.640000" y="5356.710000" type="priority"/>
	<node id="cell3_31" x="4910.640000" y="5356.710000" type="priority"/>
	<node id="cell3_32" x="5010.640000" y="5356.710000" type="priority"/>
	<node id="cell3_33" x="5110.640000" y="5356.710000" type="priority"/>
	<node id="cell3_34" x="5210.640000" y="5356.710000" type="priority"/>
	<node id="cell3_35" x="5310.640000" y="5356.710000" type="priority"/>
	<node id="cell3_36" x="5410.640000" y="5356.710000" type="priority"/>
	<node id="cell3_37" x="5510.640000" y="5356.710000" type="priority"/>
	<node id="cell3_38" x="5610.640000" y="5356.710000" type="priority"/>
	<node id="cell3_39" x="5710.640000" y="5356.710000" type="priority"/>
	<node id="cell3_40" x="5810.640000" y="5356.710000" type="priority"/>
	<node id="cell3_41" x="5910.640000" y="5356.710000" type="priority"/>
	<node id="cell3_42" x="6010.640000" y="5356.710000" type="priority"/>
	<node id="cell3_43" x="6110.640000" y="5356.710000" type="priority"/>
	<node id="cell3_44" x="6210.640000" y="5356.710000" type="priority"/>
	<node id="cell3_45" x="6310.640000" y="5356.710000" type="priority"/>
	<node id="cell3_46" x="6410.640000" y="5356.710000" type="priority"/>
	<node id="cell3_47" x="6510.640000" y="5356.710000" type="priority"/>
	<node id="cell3_48" x="6610.640000" y="5356.710000" type="priority"/>
	<node id="cell3_49" x="6710.640000" y="5356.710000" type="priority"/>
	<node id="cell3_50" x="6810.640000" y="5356.710000" type="priority"/>
	<node id="cell3_51" x="6910.640000" y="5356.710000" type="priority"/>
	<node id="cell4_0" x="1810.640000" y="5256.710000" type="priority"/>
	<node id="cell4_1" x="1910.640000" y="5256.710000" type="priority"/>
	<node id="cell4_2" x="2010.640000" y="5256.710000" type="priority"/>
	<node id="cell4_3" x="2110.640000" y="5256.710000" type="priority"/>
	<node id="cell4_4" x="2210.640000" y="5256.710000" type="priority"/>
	<node id="cell4_5" x="2310.640000" y="5256.710000" type="priority"/>
	<node id="cell4_6" x="2410.640000" y="5256.710000" type="priority"/>
	<node id="cell4_7" x="2510.640000" y="5256.710000" type="priority"/>
	<node id="cell4_8" x="2610.640000" y="5256.710000" type="priority"/>
	<node id="cell4_9" x="2710.640000" y="5256.710000" type="priority"/>
	<node id="cell4_10" x="2810.640000" y="5256.710000" type="priority"/>
	<node id="cell4_11" x="2910.640000" y="5256.710000" type="priority"/>
	<node id="cell4_12" x="3010.640000" y="5256.710000" type="priority"/>
	<node id="cell4_13" x="3110.640000" y="5256.710000" type="priority"/>
	<node id="cell4_14" x="3210.640000" y="5256.710000" type="priority"/>
	<node id="cell4_15" x="3310.640000" y="5256.710000" type="priority"/>
	<node id="cell4_16" x="3410.640000" y="5256.710000" type="priority"/>
	<node id="cell4_17" x="3510.640000" y="5256.710000" type="priority"/>
	<node id="cell4_18" x="3610.640000" y="5256.710000" type="priority"/>
	<node id="cell4_19" x="3710.640000" y="5256.710000" type="priority"/>
	<node id="cell4_20" x="3810.640000" y="5256.710000" type="priority"/>
	<node id="cell4_21" x="3910.640000" y="5256.710000" type="priority"/>
	<node id="cell4_22" x="4010.640000" y="5256.710000" type="priority"/>
	<node id="cell4_23" x="4110.640000" y="5256.710000" type="priority"/>
	<node id="cell4_24" x="4210.640000" y="5256.710000" type="priority"/>
	<node id="cell4_25" x="4310.640000" y="5256.710000" type="priority"/>
	<node id="cell4_26" x="4410.640000" y="5256.710000" type="priority"/>
	<node id="cell4_27" x="4510.640000" y="5256.710000" type="priority"/>
	<node id="cell4_28" x="4610.640000" y="5256.710000" type="priority"/>
	<node id="cell4_29" x="4710.640000" y="5256.710000" type="priority"/>
	<node id="cell4_30" x="4810.640000" y="5256.710000" type="priority"/>
	<node id="cell4_31" x="4910.640000" y="5256.710000" type="priority"/>
	<node id="cell4_32" x="5010.640000" y="5256.710000" type="priority"/>
	<node id="cell4_33" x="5110.640000" y="5256.710000" type="priority"/>
	<node id="cell4_34" x="5210.640000" y="5256.710000" type="priority"/>
	<node id="cell4_35" x="5310.640000" y="5256.710000" type="priority"/>
	<node id="cell4_36" x="5410.640000" y="5256.710000" type="priority"/>
	<node id="cell4_37" x="5510.640000" y="5256.710000" type="priority"/>
	<node id="cell4_38" x="5610.640000" y="5256.710000" type="priority"/>
	<node id="cell4_39" x="5710.640000" y="5256.710000" type="priority"/>
	<node id="cell4_40" x="5810.640000" y="5256.710000" type="priority"/>
	<node id="cell4_41" x="5910.640000" y="5256.710000" type="priority"/>
	<node id="cell4_42" x="6010.640000" y="5256.710000" type="priority"/>
	<node id="cell4_43" x="6110.640000" y="5256.710000" type="priority"/>
	<node id="cell4_44" x="6210.640000" y="5256.710000" type="priority"/>
	<node id="cell4_45" x="6310.640000" y="5256.710000" type="priority"/>
	<node id="cell4_46" x="6410.640000" y="5256.710000" type="priority"/>
	<node id="cell4_47" x="6510.640000" y="5256.710000" type="priority"/>
	<node id="cell4_48" x="6610.640000" y="5256.710000" type="priority"/>
	<node id="cell4_49" x="6710.640000" y="5256.710000" type="priority"/>
	<node id="cell4_50" x="6810.640000" y="5256.710000" type="priority"/>
	<node id="cell4_51" x="6910.640000" y="5256.710000" type="priority"/>
	<node id="cell5_0" x="1810.640000" y="5156.710000" type="priority"/>
	<node id="cell5_1" x="1910.640000" y="5156.710000" type="priority"/>
	<node id="cell5_2" x="2010.640000" y="5156.710000" type="priority"/>
	<node id="cell5_3" x="2110.640000" y="5156.710000" type="priority"/>
	<node id="cell5_4" x="2210.640000" y="5156.710000" type="priority"/>
	<node id="cell5_5" x="2310.640000" y="5156.710000" type="priority"/>
	<node id="cell5_6" x="2410.640000" y="5156.710000" type="priority"/>
	<node id="cell5_7" x="2510.640000" y="5156.710000" type="priority"/>
	<node id="cell5_8" x="2610.640000" y="5156.710000" type="priority"/>
	<node id="cell5_9" x="2710.640000" y="5156.710000" type="priority"/>
	<node id="cell5_10" x="2810.640000" y="5156.710000" type="priority"/>
	<node id="cell5_11" x="2910.640000" y="5156.710000" type="priority"/>
	<node id="cell5_12" x="3010.640000" y="5156.710000" type="priority"/>
	<node id="cell5_13" x="3110.640000" y="5156.710000" type="priority"/>
	<node id="cell5_14" x="3210.640000" y="5156.710000" type="priority"/>
	<node id="cell5_15" x="3310.640000" y="5156.710000" type="priority"/>
	<node id="cell5_16" x="3410.640000" y="5156.710000" type="priority"/>
	<node id="cell5_17" x="3510.640000" y="5156.710000" type="priority"/>
	<node id="cell5_18" x="3610.640000" y="5156.710000" type="priority"/>
	<node id="cell5_19" x="3710.640000" y="5156.710000" type="priority"/>
	<node id="cell5_20" x="3810.640000" y="5156.710000" type="priority"/>
	<node id="cell5_21" x="3910.640000" y="5156.710000" type="priority"/>
	<node id="cell5_22" x="4010.640000" y="5156.710000" type="priority"/>
	<node id="cell5_23" x="4110.640000" y="5156.710000" type="priority"/>
	<node id="cell5_24" x="4210.640000" y="5156.710000" type="priority"/>
	<node id="cell5_25" x="4310.640000" y="5156.710000" type="priority"/>
	<node id="cell5_26" x="4410.640000" y="5156.710000" type="priority"/>
	<node id="cell5_27" x="4510.640000" y="5156.710000" type="priority"/>
	<node id="cell5_28" x="4610.640000" y="5156.710000" type="priority"/>
	<node id="cell5_29" x="4710.640000" y="5156.710000" type="priority"/>
	<node id="cell5_30" x="4810.640000" y="5156.710000" type="priority"/>
	<node id="cell5_31" x="4910.640000" y="5156.710000" type="priority"/>
	<node id="cell5_32" x="5010.640000" y="5156.710000" type="priority"/>
	<node id="cell5_33" x="5110.640000" y="5156.710000" type="priority"/>
	<node id="cell5_34" x="5210.640000" y="5156.710000" type="priority"/>
	<node id="cell5_35" x="5310.640000" y="5156.710000" type="priority"/>
	<node id="cell5_36" x="5410.640000" y="5156.710000" type="priority"/>
	<node id="cell5_37" x="5510.640000" y="5156.710000" type="priority"/>
	<node id="cell5_38" x="5610.640000" y="5156.710000" type="priority"/>
	<node id="cell5_39" x="5710.640000" y="5156.710000" type="priority"/>
	<node id="cell5_40" x="5810.640000" y="5156.710000" type="priority"/>
	<node id="cell5_41" x="5910.640000" y="5156.710000" type="priority"/>
	<node id="cell5_42" x="6010.640000" y="5156.710000" type="priority"/>
	<node id="cell5_43" x="6110.640000" y="5156.710000" type="priority"/>
	<node id="cell5_44" x="6210.640000" y="5156.710000" type="priority"/>
	<node id="cell5_45" x="6310.640000" y="5156.710000" type="priority"/>
	<node id="cell5_46" x="6410.640000" y="5156.710000" type="priority"/>
	<node id="cell5_47" x="6510.640000" y="5156.710000" type="priority"/>
	<node id="cell5_48" x="6610.640000" y="5156.710000" type="priority"/>
	<node id="cell5_49" x="6710.640000" y="5156.710000" type="priority"/>
	<node id="cell5_50" x="6810.640000" y="5156.710000" type="priority"/>
	<node id="cell5_51" x="6910.640000" y="5156.710000" type="priority"/>
	<node id="cell6_0" x="1810.640000" y="5056.710000" type="priority"/>
	<node id="cell6_1" x="1910.640000" y="5056.710000" type="priority"/>
	<node id="cell6_2" x="2010.640000" y="5056.710000" type="priority"/>
	<node id="cell6_3" x="2110.640000" y="5056.710000" type="priority"/>
	<node id="cell6_4" x="2210.640000" y="5056.710000" type="priority"/>
	<node id="cell6_5" x="2310.640000" y="5056.710000" type="priority"/>
	<node id="cell6_6" x="2410.640000" y="5056.710000" type="priority"/>
	<node id="cell6_7" x="2510.640000" y="5056.710000" type="priority"/>
	<node id="cell6_8" x="2610.640000" y="5056.710000" type="priority"/>
	<node id="cell6_9" x="2710.640000" y="5056.710000" type="priority"/>
	<node id="cell6_10" x="2810.640000" y="5056.710000" type="priority"/>
	<node id="cell6_11" x="2910.640000" y="5056.710000" type="priority"/>
	<node id="cell6_12" x="3010.640000" y="5056.710000" type="priority"/>
	<node id="cell6_13" x="3110.640000" y="5056.710000" type="priority"/>
	<node id="cell6_14" x="3210.640000" y="5056.710000" type="priority"/>
	<node id="cell6_15" x="3310.640000" y="5056.710000" type="priority"/>
	<node id="cell6_16" x="3410.640000" y="5056.710000" type="priority"/>
	<node id="cell6_17" x="3510.640000" y="5056.710000" type="priority"/>
	<node id="cell6_18" x="3610.640000" y="5056.710000" type="priority"/>
	<node id="cell6_19" x="3710.640000" y="5056.710000" type="priority"/>
	<node id="cell6_20" x="3810.640000" y="5056.710000" type="priority"/>
	<node id="cell6_21" x="3910.640000" y="5056.710000" type="priority"/>
	<node id="cell6_22" x="4010.640000" y="5056.710000" type="priority"/>
	<node id="cell6_23" x="4110.640000" y="5056.710000" type="priority"/>
	<node id="cell6_24" x="4210.640000" y="5056.710000" type="priority"/>
	<node id="cell6_25" x="4310.640000" y="5056.710000" type="priority"/>
	<node id="cell6_26" x="4410.640000" y="5056.710000" type="priority"/>
	<node id="cell6_27" x="4510.640000" y="5056.710000" type="priority"/>
	<node id="cell6_28" x="4610.640000" y="5056.710000" type="priority"/>
	<node id="cell6_29" x="4710.640000" y="5056.710000" type="priority"/>
	<node id="cell6_30" x="4810.640000" y="5056.710000" type="priority"/>
	<node id="cell6_31" x="4910.640000" y="5056.710000" type="priority"/>
	<node id="cell6_32" x="5010.640000" y="5056.710000" type="priority"/>
	<node id="cell6_33" x="5110.640000" y="5056.710000" type="priority"/>
	<node id="cell6_34" x="5210.640000" y="5056.710000" type="priority"/>
	<node id="cell6_35" x="5310.640000" y="5056.710000" type="priority"/>
	<node id="cell6_36" x="5410.640000" y="5056.710000" type="priority"/>
	<node id="cell6_37" x="5510.640000" y="5056.710000" type="priority"/>
	<node id="cell6_38" x="5610.640000" y="5056.710000" type="priority"/>
	<node id="cell6_39" x="5710.640000" y="5056.710000" type="priority"/>
	<node id="cell6_40" x="5810.640000" y="5056.710000" type="priority"/>
	<node id="cell6_41" x="5910.640000" y="5056.710000" type="priority"/>
	<node id="cell6_42" x="6010.640000" y="5056.710000" type="priority"/>
	<node id="cell6_43" x="6110.640000" y="5056.710000" type="priority"/>
	<node id="cell6_44" x="6210.640000" y="5056.710000" type="priority"/>
	<node id="cell6_45" x="6310.640000" y="5056.710000" type="priority"/>
	<node id="cell6_46" x="6410.640000" y="5056.710000" type="priority"/>
	<node id="cell6_47" x="6510.640000" y="5056.710000" type="priority"/>
	<node id="cell6_48" x="6610.640000" y="5056.710000" type="priority"/>
	<node id="cell6_49" x="6710.640000" y="5056.710000" type="priority"/>
	<node id="cell6_50" x="6810.640000" y="5056.710000" type="priority"/>
	<node id="cell6_51" x="6910.640000" y="5056.710000" type="priority"/>
	<node id="cell7_0" x="1810.640000" y="4956.710000" type="priority"/>
	<node id="cell7_1" x="1910.640000" y="4956.710000" type="priority"/>
	<node id="cell7_2" x="2010.640000" y="4956.710000" type="priority"/>
	<node id="cell7_3" x="2110.640000" y="4956.710000" type="priority"/>
	<node id="cell7_4" x="2210.640000" y="4956.710000" type="priority"/>
	<node id="cell7_5" x="2310.640000" y="4956.710000" type="priority"/>
	<node id="cell7_6" x="2410.640000" y="4956.710000" type="priority"/>
	<node id="cell7_7" x="2510.640000" y="4956.710000" type="priority"/>
	<node id="cell7_8" x="2610.640000" y="4956.710000" type="priority"/>
	<node id="cell7_9" x="2710.640000" y="4956.710000" type="priority"/>
	<node id="cell7_10" x="2810.640000" y="4956.710000" type="priority"/>
	<node id="cell7_11" x="2910.640000" y="4956.710000" type="priority"/>
	<node id="cell7_12" x="3010.640000" y="4956.710000" type="priority"/>
	<node id="cell7_13" x="3110.640000" y="4956.710000" type="priority"/>
	<node id="cell7_14" x="3210.640000" y="4956.710000" type="priority"/>
	<node id="cell7_15" x="3310.640000" y="4956.710000" type="priority"/>
	<node id="cell7_16" x="3410.640000" y="4956.710000" type="priority"/>
	<node id="cell7_17" x="3510.640000" y="4956.710000" type="priority"/>
	<node id="cell7_18" x="3610.640000" y="4956.710000" type="priority"/>
	<node id="cell7_19" x="3710.640000" y="4956.710000" type="priority"/>
	<node id="cell7_20" x="3810.640000" y="4956.710000" type="priority"/>
	<node id="cell7_21" x="3910.640000" y="4956.710000" type="priority"/>
	<node id="cell7_22" x="4010.640000" y="4956.710000" type="priority"/>
	<node id="cell7_23" x="4110.640000" y="4956.710000" type="priority"/>
	<node id="cell7_24" x="4210.640000" y="4956.710000" type="priority"/>
	<node id="cell7_25" x="4310.640000" y="4956.710000" type="priority"/>
	<node id="cell7_26" x="4410.640000" y="4956.710000" type="priority"/>
	<node id="cell7_27" x="4510.640000" y="4956.710000" type="priority"/>
	<node id="cell7_28" x="4610.640000" y="4956.710000" type="priority"/>
	<node id="cell7_29" x="4710.640000" y="4956.710000" type="priority"/>
	<node id="cell7_30" x="4810.640000" y="4956.710000" type="priority"/>
	<node id="cell7_31" x="4910.640000" y="4956.710000" type="priority"/>
	<node id="cell7_32" x="5010.640000" y="4956.710000" type="priority"/>
	<node id="cell7_33" x="5110.640000" y="4956.710000" type="priority"/>
	<node id="cell7_34" x="5210.640000" y="4956.710000" type="priority"/>
	<node id="cell7_35" x="5310.640000" y="4956.710000" type="priority"/>
	<node id="cell7_36" x="5410.640000" y="4956.710000" type="priority"/>
	<node id="cell7_37" x="5510.640000" y="4956.710000" type="priority"/>
	<node id="cell7_38" x="5610.640000" y="4956.710000" type="priority"/>
	<node id="cell7_39" x="5710.640000" y="4956.710000" type="priority"/>
	<node id="cell7_40" x="5810.640000" y="4956.710000" type="priority"/>
	<node id="cell7_41" x="5910.640000" y="4956.710000" type="priority"/>
	<node id="cell7_42" x="6010.640000" y="4956.710000" type="priority"/>
	<node id="cell7_43" x="6110.640000" y="4956.710000" type="priority"/>
	<node id="cell7_44" x="6210.640000" y="4956.710000" type="priority"/>
	<node id="cell7_45" x="6310.640000" y="4956.710000" type="priority"/>
	<node id="cell7_46" x="6410.640000" y="4956.710000" type="priority"/>
	<node id="cell7_47" x="6510.640000" y="4956.710000" type="priority"/>
	<node id="cell7_48" x="6610.640000" y="4956.710000" type="priority"/>
	<node id="cell7_49" x="6710.640000" y="4956.710000" type="priority"/>
	<node id="cell7_50" x="6810.640000" y="4956.710000" type="priority"/>
	<node id="cell7_51" x="6910.640000" y="4956.710000" type="priority"/>
	<node id="cell8_0" x="1810.640000" y="4856.710000" type="priority"/>
	<node id="cell8_1" x="1910.640000" y="4856.710000" type="priority"/>
	<node id="cell8_2" x="2010.640000" y="4856.710000" type="priority"/>
	<node id="cell8_3" x="2110.640000" y="4856.710000" type="priority"/>
	<node id="cell8_4" x="2210.640000" y="4856.710000" type="priority"/>
	<node id="cell8_5" x="2310.640000" y="4856.710000" type="priority"/>
	<node id="cell8_6" x="2410.640000" y="4856.710000" type="priority"/>