<edges>
	<edge id="road0" from="cell0_2" to="cell0_2" priority="1" numLanes="1" speed="67.056000"/>
	<edge id="road1" from="cell0_2" to="cell0_3" priority="1" numLanes="1" speed="67.056000"/>
	<edge id="road2" from="cell0_2" to="cell1_3" priority="1" numLanes="1" speed="67.056000"/>
	<edge id="road3" from="cell0_3" to="cell0_3" priority="1" numLanes="1" speed="67.056000"/>
	<edge id="road4" from="cell0_3" to="cell1_3" priority="1" numLanes="1" speed="67.056000"/>
	<edge id="road5" from="cell0_3" to="cell0_2" priority="1" numLanes="1" speed="67.056000"/>
	<edge id="road6" from="cell0_5" to="cell0_5" priority="1" numLanes="1" speed="67.056000"/>
	<edge id="road7" from="cell0_5" to="cell1_5" priority="1" numLanes="1" speed="67.056000"/>
	<edge id="road8" from="cell0_6" to="cell0_6" priority="1" numLanes="1" speed="67.056000"/>
	<edge id="road9" from="cell0_6" to="cell0_7" priority="1" numLanes="1" speed="67.056000"/>
	<edge id="road10" from="cell0_7" to="cell0_7" priority="1" numLanes="1" speed="67.056000"/>
	<edge id="road11" from="cell0_7" to="cell0_6" priority="1" numLanes="1" speed="67.056000"/>
	<edge id="road12" from="cell0_8" to="cell0_8" priority="1" numLanes="1" speed="67.056000"/>
	<edge id="road13" from="cell0_8" to="cell1_8" priority="1" numLanes="1" speed="67.056000"/>
	<edge id="road14" from="cell0_9" to="cell1_10" priority="1" numLanes="1" speed="67.056000"/>
	<edge id="road15" from="cell0_9" to="cell0_9" priority="1" numLanes="1" speed="67.056000"/>
	<edge id="road16" from="cell0_9" to="cell0_10" priority="1" numLanes="1" speed="67.056000"/>
	<edge id="road17" from="cell0_9" to="cell0_8" priority="1" numLanes="1" speed="67.056000"/>
	<edge id="road18" from="cell0_10" to="cell1_11" priority="1" numLanes="1" speed="67.056000"/>
	<edge id="road19" from="cell0_10" to="cell0_10" priority="1" numLanes="1" speed="67.056000"/>
	<edge id="road20" from="cell0_10" to="cell0_9" priority="1" numLanes="1" speed="67.056000"/>
	<edge id="road21" from="cell0_12" to="cell0_12" priority="1" numLanes="1" speed="67.056000"/>
	<edge id="road22" from="cell0_12" to="cell1_11" priority="1" numLanes="1" speed="67.056000"/>
	<edge id="road23" from="cell0_12" to="cell1_12" priority="1" numLanes="1" speed="67.056000"/>
	<edge id="road24" from="cell0_13" to="cell1_13" priority="1" numLanes="1" speed="67.056000"/>
	<edge id="road25" from="cell0_13" to="cell0_13" priority="1" numLanes="1" speed="67.056000"/>
	<edge id="road26" from="cell0_13" to="cell1_12" priority="1" numLanes="1" speed="67.056000"/>
	<edge id="road27" from="cell0_14" to="cell0_14" priority="1" numLanes="1" speed="67.056000"/>
	<edge id="road28" from="cell0_14" to="cell1_14" priority="1" numLanes="1" speed="67.056000"/>
	<edge id="road29" from="cell0_15" to="cell0_15" priority="1" numLanes="1" speed="67.056000"/>
	<edge id="road30" from="cell0_15" to="cell1_14" priority="1" numLanes="1" speed="67.056000"/>
	<edge id="road31" from="cell0_15" to="cell0_16" priority="1" numLanes="1" speed="67.056000"/>
	<edge id="road32" from="cell0_16" to="cell1_16" priority="1" numLanes="1" speed="67.056000"/>
	<edge id="road33" from="cell0_17" to="cell0_17" priority="1" numLanes="1" speed="67.056000"/>
	<edge id="road34" from="cell0_17" to="cell1_17" priority="1" numLanes="1" speed="67.056000"/>
	<edge id="road35" from="cell0_20" to="cell0_20" priority="1" numLanes="1" speed="67.056000"/>
	<edge id="road36" from="cell0_21" to="cell0_21" priority="1" numLanes="1" speed="67.056000"/>
	<edge id="road37" from="cell0_21" to="cell1_21" priority="1" numLanes="1" speed="67.056000"/>
	<edge id="road38" from="cell0_21" to="cell0_20" priority="1" numLanes="1" speed="67.056000"/>
	<edge id="road39" from="cell0_21" to="cell0_22" priority="1" numLanes="1" speed="67.056000"/>
	<edge id="road40" from="cell0_22" to="cell1_22" priority="1" numLanes="1" speed="67.056000"/>
	<edge id="road41" from="cell0_22" to="cell0_21" priority="1" numLanes="1" speed="67.056000"/>
	<edge id="road42" from="cell0_22" to="cell0_23" priority="1" numLanes="1" speed="67.056000"/>
	<edge id="road43" from="cell0_23" to="cell0_22" priority="1" numLanes="1" speed="67.056000"/>
	<edge id="road44" from="cell0_23" to="cell0_23" priority="1" numLanes="1" speed="67.056000"/>
	<edge id="road45" from="cell0_23" to="cell0_24" priority="1" numLanes="1" speed="67.056000"/>
	<edge id="road46" from="cell0_24" to="cell0_24" priority="1" numLanes="1" speed="67.056000"/>
	<edge id="road47" from="cell0_24" to="cell0_23" priority="1" numLanes="1" speed="67.056000"/>
	<edge id="road48" from="cell0_24" to="cell1_24" priority="1" numLanes="1" speed="67.056000"/>
	<edge id="road49" from="cell0_25" to="cell1_25" priority="1" numLanes="1" speed="67.056000"/>
	<edge id="road50" from="cell0_26" to="cell1_26" priority="1" numLanes="1" speed="67.056000"/>
	<edge id="road51" from="cell0_26" to="cell0_26" priority="1" numLanes="1" speed="67.056000"/>
	<edge id="road52" from="cell0_26" to="cell0_27" priority="1" numLanes="1" speed="67.056000"/>
	<edge id="road53" from="cell0_27" to="cell0_27" priority="1" numLanes="1" speed="67.056000"/>
	<edge id="road54" from="cell0_27" to="cell0_26" priority="1" numLanes="1" speed="67.056000"/>
	<edge id="road55" from="cell0_27" to="cell0_28" priority="1" numLanes="1" speed="67.056000"/>
	<edge id="road56" from="cell0_27" to="cell1_27" priority="1" numLanes="1" speed="67.056000"/>
	<edge id="road57" from="cell0_28" to="cell0_28" priority="1" numLanes="1" speed="67.056000"/>
	<edge id="road58" from="cell0_28" to="cell0_27" priority="1" numLanes="1" speed="67.056000"/>
	<edge id="road59" from="cell0_28" to="cell0_29" priority="1" numLanes="1" speed="67.056000"/>
	<edge id="road60" from="cell0_28" to="cell1_28" priority="1" numLanes="1" speed="67.056000"/>
	<edge id="road61" from="cell0_29" to="cell0_29" priority="1" numLanes="1" speed="67.056000"/>
	<edge id="road62" from="cell0_29" to="cell0_30" priority="1" numLanes="1" speed="67.056000"/>
	<edge id="road63" from="cell0_29" to="cell0_28" priority="1" numLanes="1" speed="67.056000"/>
	<edge id="road64" from="cell0_30" to="cell0_30" priority="1" numLanes="1" speed="67.056000"/>
	<edge id="road65" from="cell0_30" to="cell1_30" priority="1" numLanes="1" speed="67.056000"/>
	<edge id="road66" from="cell0_30" to="cell0_29" priority="1" numLanes="1" speed="67.056000"/>
	<edge id="road67" from="cell0_30" to="cell0_31" priority="1" numLanes="1" speed="67.056000"/>
	<edge id="road68" from="cell0_31" to="cell0_31" priority="1" numLanes="1" speed="67.056000"/>
	<edge id="road69" from="cell0_31" to="cell0_30" priority="1" numLanes="1" speed="67.056000"/>
	<edge id="road70" from="cell0_31" to="cell0_32" priority="1" numLanes="1" speed="67.056000"/>
	<edge id="road71" from="cell0_32" to="cell0_32" priority="1" numLanes="1" speed="67.056000"/>
	<edge id="road72" from="cell0_32" to="cell1_33" priority="1" numLanes="1" speed="67.056000"/>
	<edge id="road73" from="cell0_33" to="cell0_34" priority="1" numLanes="1" speed="67.056000"/>
	<edge id="road74" from="cell0_34" to="cell0_34" priority="1" numLanes="1" speed="67.056000"/>
	<edge id="road75" from="cell0_34" to="cell0_33" priority="1" numLanes="1" speed="67.056000"/>
	<edge id="road76" from="cell0_34" to="cell0_35" priority="1" numLanes="1" speed="67.056000"/>
	<edge id="road77" from="cell0_34" to="cell1_34" priority="1" numLanes="1" speed="67.056000"/>
	<edge id="road78" from="cell0_35" to="cell0_34" priority="1" numLanes="1" speed="67.056000"/>
	<edge id="road79" from="cell0_35" to="cell0_35" priority="1" numLanes="1" speed="67.056000"/>
	<edge id="road80" from="cell0_35" to="cell1_35" priority="1" numLanes="1" speed="67.056000"/>
	<edge id="road81" from="cell0_35" to="cell0_36" priority="1" numLanes="1" speed="67.056000"/>
	<edge id="road82" from="cell0_36" to="cell0_36" priority="1" numLanes="1" speed="67.056000"/>
	<edge id="road83" from="cell0_36" to="cell0_35" priority="1" numLanes="1" speed="67.056000"/>
	<edge id="road84" from="cell0_36" to="cell1_36" priority="1" numLanes="1" speed="67.056000"/>
	<edge id="road85" from="cell0_37" to="cell0_37" priority="1" numLanes="1" speed="67.056000"/>
	<edge id="road86" from="cell0_37" to="cell1_38" priority="1" numLanes="1" speed="67.056000"/>
	<edge id="road87" from="cell0_39" to="cell0_39" priority="1" numLanes="1" speed="67.056000"/>
	<edge id="road88" from="cell0_39" to="cell1_40" priority="1" numLanes="1" speed="67.056000"/>
	<edge id="road89" from="cell0_39" to="cell1_39" priority="1" numLanes="1" speed="67.056000"/>
	<edge id="road90" from="cell0_39" to="cell0_40" priority="1" numLanes="1" speed="67.056000"/>
	<edge id="road91" from="cell0_40" to="cell0_40" priority="1" numLanes="1" speed="67.056000"/>
	<edge id="road92" from="cell0_40" to="cell1_40" priority="1" numLanes="1" speed="67.056000"/>
	<edge id="road93" from="cell0_40" to="cell0_39" priority="1" numLanes="1" speed="67.056000"/>
	<edge id="road94" from="cell0_40" to="cell0_41" priority="1" numLanes="1" speed="67.056000"/>
	<edge id="road95" from="cell0_41" to="cell0_40" priority="1" numLanes="1" speed="67.056000"/>
	<edge id="road96" from="cell0_41" to="cell1_41" priority="1" numLanes="1" speed="67.056000"/>
	<edge id="road97" from="cell0_42" to="cell0_42" priority="1" numLanes="1" speed="67.056000"/>
	<edge id="road98" from="cell0_42" to="cell1_42" priority="1" numLanes="1" speed="67.056000"/>
	<edge id="road99" from="cell0_43" to="cell0_43" priority="1" numLanes="1" speed="67.056000"/>
	<edge id="road100" from="cell0_43" to="cell0_44" priority="1" numLanes="1" speed="67.056000"/>
	<edge id="road101" from="cell0_43" to="cell1_42" priority="1" numLanes="1" speed="67.056000"/>
	<edge id="road102" from="cell0_44" to="cell0_44" priority="1" numLanes="1" speed="67.056000"/>
	<edge id="road103" from="cell0_44" to="cell1_44" priority="1" numLanes="1" speed="67.056000"/>
	<edge id="road104" from="cell0_44" to="cell0_43" priority="1" numLanes="1" speed="67.056000"/>
	<edge id="road105" from="cell0_45" to="cell1_45" priority="1" numLanes="1" speed="67.056000"/>
	<edge id="road106" from="cell0_45" to="cell0_45" priority="1" numLanes="1" speed="67.056000"/>
	<edge id="road107" from="cell0_45" to="cell0_44" priority="1" numLanes="1" speed="67.056000"/>
	<edge id="road108" from="cell0_45" to="cell0_46" priority="1" numLanes="1" speed="67.056000"/>
	<edge id="road109" from="cell0_46" to="cell0_45" priority="1" numLanes="1" speed="67.056000"/>
	<edge id="road110" from="cell0_46" to="cell0_47" priority="1" numLanes="1" speed="67.056000"/>
	<edge id="road111" from="cell0_47" to="cell0_47" priority="1" numLanes="1" speed="67.056000"/>
	<edge id="road112" from="cell0_47" to="cell1_47" priority="1" numLanes="1" speed="67.056000"/>
	<edge id="road113" from="cell0_47" to="cell0_46" priority="1" numLanes="1" speed="67.056000"/>
	<edge id="road114" from="cell0_47" to="cell0_48" priority="1" numLanes="1" speed="67.056000"/>
	<edge id="road115" from="cell0_48" to="cell0_48" priority="1" numLanes="1" speed="67.056000"/>
	<edge id="road116" from="cell0_48" to="cell0_49" priority="1" numLanes="1" speed="67.056000"/>
	<edge id="road117" from="cell0_48" to="cell0_47" priority="1" numLanes="1" speed="67.056000"/>
	<edge id="road118" from="cell0_48" to="cell1_48" priority="1" numLanes="1" speed="67.056000"/>
	<edge id="road119" from="cell0_49" to="cell0_49" priority="1" numLanes="1" speed="67.056000"/>
	<edge id="road120" from="cell0_49" to="cell0_48" priority="1" numLanes="1" speed="67.056000"/>
	<edge id="road121" from="cell0_49" to="cell0_50" priority="1" numLanes="1" speed="67.056000"/>
	<edge id="road122" from="cell0_50" to="cell0_49" priority="1" numLanes="1" speed="67.056000"/>
	<edge id="road123" from="cell0_50" to="cell0_50" priority="1" numLanes="1" speed="67.056000"/>
	<edge id="road124" from="cell0_50" to="cell0_51" priority="1" numLanes="1" speed="67.056000"/>
	<edge id="road125" from="cell0_51" to="cell0_50" priority="1" numLanes="1" speed="67.056000"/>
	<edge id="road126" from="cell0_51" to="cell0_51" priority="1" numLanes="1" speed="67.056000"/>
	<edge id="road127" from="cell0_51" to="cell1_51" priority="1" numLanes="1" speed="67.056000"/>
	<edge id="road128" from="cell1_2" to="cell0_2" priority="1" numLanes="1" speed="67.056000"/>
	<edge id="road129" from="cell1_3" to="cell1_3" priority="1" numLanes="1" speed="67.056000"/>
	<edge id="road130" from="cell1_3" to="cell2_3" priority="1" numLanes="1" speed="67.056000"/>
	<edge id="road131" from="cell1_3" to="cell0_3" priority="1" numLanes="1" speed="67.056000"/>
	<edge id="road132" from="cell1_4" to="cell2_3" priority="1" numLanes="1" speed="67.056000"/>
	<edge id="road133" from="cell1_4" to="cell1_4" priority="1" numLanes="1" speed="67.056000"/>
	<edge id="road134" from="cell1_4" to="cell2_4" priority="1" numLanes="1" speed="67.056000"/>
	<edge id="road135" from="cell1_5" to="cell1_6" priority="1" numLanes="1" speed="67.056000"/>
	<edge id="road136" from="cell1_5" to="cell0_5" priority="1" numLanes="1" speed="67.056000"/>
	<edge id="road137" from="cell1_5" to="cell1_5" priority="1" numLanes="1" speed="67.056000"/>
	<edge id="road138" from="cell1_6" to="cell1_5" priority="1" numLanes="1" speed="67.056000"/>
	<edge id="road139" from="cell1_6" to="cell1_6" priority="1" numLanes="1" speed="67.056000"/>
	<edge id="road140" from="cell1_6" to="cell2_6" priority="1" numLanes="1" speed="67.056000"/>
	<edge id="road141" from="cell1_6" to="cell1_7" priority="1" numLanes="1" speed="67.056000"/>
	<edge id="road142" from="cell1_7" to="cell1_7" priority="1" numLanes="1" speed="67.056000"/>
	<edge id="road143" from="cell1_7" to="cell1_8" priority="1" numLanes="1" speed="67.056000"/>
	<edge id="road144" from="cell1_7" to="cell0_7" priority="1" numLanes="1" speed="67.056000"/>
	<edge id="road145" from="cell1_8" to="cell2_8" priority="1" numLanes="1" speed="67.056000"/>
	<edge id="road146" from="cell1_8" to="cell1_8" priority="1" numLanes="1" speed="67.056000"/>
	<edge id="road147" from="cell1_8" to="cell1_7" priority="1" numLanes="1" speed="67.056000"/>
	<edge id="road148" from="cell1_10" to="cell1_10" priority="1" numLanes="1" speed="67.056000"/>
	<edge id="road149" from="cell1_10" to="cell2_11" priority="1" numLanes="1" speed="67.056000"/>
	<edge id="road150" from="cell1_10" to="cell2_10" priority="1" numLanes="1" speed="67.056000"/>
	<edge id="road151" from="cell1_10" to="cell0_9" priority="1" numLanes="1" speed="67.056000"/>
	<edge id="road152" from="cell1_10" to="cell1_11" priority="1" numLanes="1" speed="67.056000"/>
	<edge id="road153" from="cell1_11" to="cell2_12" priority="1" numLanes="1" speed="67.056000"/>
	<edge id="road154" from="cell1_11" to="cell1_11" priority="1" numLanes="1" speed="67.056000"/>
	<edge id="road155" from="cell1_11" to="cell1_12" priority="1" numLanes="1" speed="67.056000"/>
	<edge id="road156" from="cell1_11" to="cell1_10" priority="1" numLanes="1" speed="67.056000"/>
	<edge id="road157" from="cell1_11" to="cell0_10" priority="1" numLanes="1" speed="67.056000"/>
	<edge id="road158" from="cell1_11" to="cell2_11" priority="1" numLanes="1" speed="67.056000"/>
	<edge id="road159" from="cell1_11" to="cell0_12" priority="1" numLanes="1" speed="67.056000"/>
	<edge id="road160" from="cell1_12" to="cell0_12" priority="1" numLanes="1" speed="67.056000"/>
	<edge id="road161" from="cell1_12" to="cell0_13" priority="1" numLanes="1" speed="67.056000"/>
	<edge id="road162" from="cell1_12" to="cell1_12" priority="1" numLanes="1" speed="67.056000"/>
	<edge id="road163" from="cell1_12" to="cell1_13" priority="1" numLanes="1" speed="67.056000"/>
	<edge id="road164" from="cell1_12" to="cell1_11" priority="1" numLanes="1" speed="67.056000"/>
	<edge id="road165" from="cell1_13" to="cell1_14" priority="1" numLanes="1" speed="67.056000"/>
	<edge id="road166" from="cell1_13" to="cell1_13" priority="1" numLanes="1" speed="67.056000"/>
	<edge id="road167" from="cell1_13" to="cell1_12" priority="1" numLanes="1" speed="67.056000"/>
	<edge id="road168" from="cell1_13" to="cell0_13" priority="1" numLanes="1" speed="67.056000"/>
	<edge id="road169" from="cell1_13" to="cell2_13" priority="1" numLanes="1" speed="67.056000"/>
	<edge id="road170" from="cell1_14" to="cell2_14" priority="1" numLanes="1" speed="67.056000"/>
	<edge id="road171" from="cell1_14" to="cell1_14" priority="1" numLanes="1" speed="67.056000"/>
	<edge id="road172" from="cell1_14" to="cell0_14" priority="1" numLanes="1" speed="67.056000"/>
	<edge id="road173" from="cell1_14" to="cell2_13" priority="1" numLanes="1" speed="67.056000"/>
	<edge id="road174" from="cell1_14" to="cell0_15" priority="1" numLanes="1" speed="67.056000"/>
	<edge id="road175" from="cell1_14" to="cell1_13" priority="1" numLanes="1" speed="67.056000"/>
	<edge id="road176" from="cell1_16" to="cell1_16" priority="1" numLanes="1" speed="67.056000"/>
	<edge id="road177" from="cell1_16" to="cell2_16" priority="1" numLanes="1" speed="67.056000"/>
	<edge id="road178" from="cell1_17" to="cell1_17" priority="1" numLanes="1" speed="67.056000"/>
	<edge id="road179" from="cell1_17" to="cell2_17" priority="1" numLanes="1" speed="67.056000"/>
	<edge id="road180" from="cell1_17" to="cell0_17" priority="1" numLanes="1" speed="67.056000"/>
	<edge id="road181" from="cell1_19" to="cell1_19" priority="1" numLanes="1" speed="67.056000"/>
	<edge id="road182" from="cell1_19" to="cell1_20" priority="1" numLanes="1" speed="67.056000"/>
	<edge id="road183" from="cell1_19" to="cell0_19" priority="1" numLanes="1" speed="67.056000"/>
	<edge id="road184" from="cell1_20" to="cell1_21" priority="1" numLanes="1" speed="67.056000"/>
	<edge id="road185" from="cell1_20" to="cell1_20" priority="1" numLanes="1" speed="67.056000"/>
	<edge id="road186" from="cell1_20" to="cell2_20" priority="1" numLanes="1" speed="67.056000"/>
	<edge id="road187" from="cell1_21" to="cell1_21" priority="1" numLanes="1" speed="67.056000"/>
	<edge id="road188" from="cell1_21" to="cell0_21" priority="1" numLanes="1" speed="67.056000"/>
	<edge id="road189" from="cell1_21" to="cell2_22" priority="1" numLanes="1" speed="67.056000"/>
	<edge id="road190" from="cell1_21" to="cell1_22" priority="1" numLanes="1" speed="67.056000"/>
	<edge id="road191" from="cell1_22" to="cell1_22" priority="1" numLanes="1" speed="67.056000"/>
	<edge id="road192" from="cell1_22" to="cell1_21" priority="1" numLanes="1" speed="67.056000"/>
	<edge id="road193" from="cell1_22" to="cell1_23" priority="1" numLanes="1" speed="67.056000"/>
	<edge id="road194" from="cell1_22" to="cell0_22" priority="1" numLanes="1" speed="67.056000"/>
	<edge id="road195" from="cell1_23" to="cell1_23" priority="1" numLanes="1" speed="67.056000"/>
	<edge id="road196" from="cell1_23" to="cell1_22" priority="1" numLanes="1" speed="67.056000"/>
	<edge id="road197" from="cell1_23" to="cell1_24" priority="1" numLanes="1" speed="67.056000"/>
	<edge id="road198" from="cell1_23" to="cell2_23" priority="1" numLanes="1" speed="67.056000"/>
	<edge id="road199" from="cell1_23" to="cell0_23" priority="1" numLanes="1" speed="67.056000"/>
	<edge id="road200" from="cell1_24" to="cell1_23" priority="1" numLanes="1" speed="67.056000"/>
	<edge id="road201" from="cell1_24" to="cell0_24" priority="1" numLanes="1" speed="67.056000"/>
	<edge id="road202" from="cell1_24" to="cell2_24" priority="1" numLanes="1" speed="67.056000"/>
	<edge id="road203" from="cell1_24" to="cell1_25" priority="1" numLanes="1" speed="67.056000"/>
	<edge id="road204" from="cell1_24" to="cell1_24" priority="1" numLanes="1" speed="67.056000"/>
	<edge id="road205" from="cell1_25" to="cell0_25" priority="1" numLanes="1" speed="67.056000"/>
	<edge id="road206" from="cell1_25" to="cell1_25" priority="1" numLanes="1" speed="67.056000"/>
	<edge id="road207" from="cell1_25" to="cell1_26" priority="1" numLanes="1" speed="67.056000"/>
	<edge id="road208" from="cell1_25" to="cell1_24" priority="1" numLanes="1" speed="67.056000"/>
	<edge id="road209" from="cell1_26" to="cell1_25" priority="1" numLanes="1" speed="67.056000"/>
	<edge id="road210" from="cell1_26" to="cell1_26" priority="1" numLanes="1" speed="67.056000"/>
	<edge id="road211" from="cell1_26" to="cell2_26" priority="1" numLanes="1" speed="67.056000"/>
	<edge id="road212" from="cell1_26" to="cell0_26" priority="1" numLanes="1" speed="67.056000"/>
	<edge id="road213" from="cell1_27" to="cell0_27" priority="1" numLanes="1" speed="67.056000"/>
	<edge id="road214" from="cell1_27" to="cell1_27" priority="1" numLanes="1" speed="67.056000"/>
	<edge id="road215" from="cell1_27" to="cell1_28" priority="1" numLanes="1" speed="67.056000"/>
	<edge id="road216" from="cell1_27" to="cell2_27" priority="1" numLanes="1" speed="67.056000"/>
	<edge id="road217" from="cell1_28" to="cell1_28" priority="1" numLanes="1" speed="67.056000"/>
	<edge id="road218" from="cell1_28" to="cell1_27" priority="1" numLanes="1" speed="67.056000"/>
	<edge id="road219" from="cell1_28" to="cell1_29" priority="1" numLanes="1" speed="67.056000"/>
	<edge id="road220" from="cell1_28" to="cell0_28" priority="1" numLanes="1" speed="67.056000"/>
	<edge id="road221" from="cell1_28" to="cell2_28" priority="1" numLanes="1" speed="67.056000"/>
	<edge id="road222" from="cell1_29" to="cell1_28" priority="1" numLanes="1" speed="67.056000"/>
	<edge id="road223" from="cell1_29" to="cell1_29" priority="1" numLanes="1" speed="67.056000"/>
	<edge id="road224" from="cell1_29" to="cell2_29" priority="1" numLanes="1" speed="67.056000"/>
	<edge id="road225" from="cell1_30" to="cell0_30" priority="1" numLanes="1" speed="67.056000"/>
	<edge id="road226" from="cell1_30" to="cell1_31" priority="1" numLanes="1" speed="67.056000"/>
	<edge id="road227" from="cell1_30" to="cell1_30" priority="1" numLanes="1" speed="67.056000"/>
	<edge id="road228" from="cell1_30" to="cell2_30" priority="1" numLanes="1" speed="67.056000"/>
	<edge id="road229" from="cell1_31" to="cell1_31" priority="1" numLanes="1" speed="67.056000"/>
	<edge id="road230" from="cell1_31" to="cell1_30" priority="1" numLanes="1" speed="67.056000"/>
	<edge id="road231" from="cell1_31" to="cell1_32" priority="1" numLanes="1" speed="67.056000"/>
	<edge id="road232" from="cell1_31" to="cell2_31" priority="1" numLanes="1" speed="67.056000"/>
	<edge id="road233" from="cell1_32" to="cell1_32" priority="1" numLanes="1" speed="67.056000"/>
	<edge id="road234" from="cell1_32" to="cell1_31" priority="1" numLanes="1" speed="67.056000"/>
	<edge id="road235" from="cell1_32" to="cell0_31" priority="1" numLanes="1" speed="67.056000"/>
	<edge id="road236" from="cell1_33" to="cell1_33" priority="1" numLanes="1" speed="67.056000"/>
	<edge id="road237" from="cell1_33" to="cell1_34" priority="1" numLanes="1" speed="67.056000"/>
	<edge id="road238" from="cell1_33" to="cell2_33" priority="1" numLanes="1" speed="67.056000"/>
	<edge id="road239" from="cell1_34" to="cell0_34" priority="1" numLanes="1" speed="67.056000"/>
	<edge id="road240" from="cell1_34" to="cell1_34" priority="1" numLanes="1" speed="67.056000"/>
	<edge id="road241" from="cell1_34" to="cell1_35" priority="1" numLanes="1" speed="67.056000"/>
	<edge id="road242" from="cell1_34" to="cell1_33" priority="1" numLanes="1" speed="67.056000"/>
	<edge id="road243" from="cell1_35" to="cell1_35" priority="1" numLanes="1" speed="67.056000"/>
	<edge id="road244" from="cell1_35" to="cell1_34" priority="1" numLanes="1" speed="67.056000"/>
	<edge id="road245" from="cell1_35" to="cell1_36" priority="1" numLanes="1" speed="67.056000"/>
	<edge id="road246" from="cell1_35" to="cell0_35" priority="1" numLanes="1" speed="67.056000"/>
	<edge id="road247" from="cell1_35" to="cell2_35" priority="1" numLanes="1" speed="67.056000"/>
	<edge id="road248" from="cell1_36" to="cell0_36" priority="1" numLanes="1" speed="67.056000"/>
	<edge id="road249" from="cell1_36" to="cell1_36" priority="1" numLanes="1" speed="67.056000"/>
	<edge id="road250" from="cell1_36" to="cell2_35" priority="1" numLanes="1" speed="67.056000"/>
	<edge id="road251" from="cell1_36" to="cell2_36" priority="1" numLanes="1" speed="67.056000"/>
	<edge id="road252" from="cell1_36" to="cell1_35" priority="1" numLanes="1" speed="67.056000"/>
	<edge id="road253" from="cell1_38" to="cell1_38" priority="1" numLanes="1" speed="67.056000"/>
	<edge id="road254" from="cell1_38" to="cell0_37" priority="1" numLanes="1" speed="67.056000"/>
	<edge id="road255" from="cell1_38" to="cell2_38" priority="1" numLanes="1" speed="67.056000"/>
	<edge id="road256" from="cell1_39" to="cell0_39" priority="1" numLanes="1" speed="67.056000"/>
	<edge id="road257" from="cell1_39" to="cell1_39" priority="1" numLanes="1" speed="67.056000"/>
	<edge id="road258" from="cell1_39" to="cell2_39" priority="1" numLanes="1" speed="67.056000"/>
	<edge id="road259" from="cell1_39" to="cell2_40" priority="1" numLanes="1" speed="67.056000"/>
	<edge id="road260" from="cell1_40" to="cell1_40" priority="1" numLanes="1" speed="67.056000"/>
	<edge id="road261" from="cell1_40" to="cell1_41" priority="1" numLanes="1" speed="67.056000"/>
	<edge id="road262" from="cell1_40" to="cell0_40" priority="1" numLanes="1" speed="67.056000"/>
	<edge id="road263" from="cell1_40" to="cell0_39" priority="1" numLanes="1" speed="67.056000"/>
	<edge id="road264" from="cell1_40" to="cell2_40" priority="1" numLanes="1" speed="67.056000"/>
	<edge id="road265" from="cell1_41" to="cell2_40" priority="1" numLanes="1" speed="67.056000"/>
	<edge id="road266" from="cell1_41" to="cell1_41" priority="1" numLanes="1" speed="67.056000"/>
	<edge id="road267" from="cell1_41" to="cell1_42" priority="1" numLanes="1" speed="67.056000"/>
	<edge id="road268" from="cell1_41" to="cell0_41" priority="1" numLanes="1" speed="67.056000"/>
	<edge id="road269" from="cell1_41" to="cell2_41" priority="1" numLanes="1" speed="67.056000"/>
	<edge id="road270" from="cell1_41" to="cell1_40" priority="1" numLanes="1" speed="67.056000"/>
	<edge id="road271" from="cell1_42" to="cell0_42" priority="1" numLanes="1" speed="67.056000"/>
	<edge id="road272" from="cell1_42" to="cell0_43" priority="1" numLanes="1" speed="67.056000"/>
	<edge id="road273" from="cell1_42" to="cell1_42" priority="1" numLanes="1" speed="67.056000"/>
	<edge id="road274" from="cell1_42" to="cell2_42" priority="1" numLanes="1" speed="67.056000"/>
	<edge id="road275" from="cell1_42" to="cell2_43" priority="1" numLanes="1" speed="67.056000"/>
	<edge id="road276" from="cell1_42" to="cell1_41" priority="1" numLanes="1" speed="67.056000"/>
	<edge id="road277" from="cell1_44" to="cell1_44" priority="1" numLanes="1" speed="67.056000"/>
	<edge id="road278" from="cell1_44" to="cell0_44" priority="1" numLanes="1" speed="67.056000"/>
	<edge id="road279" from="cell1_44" to="cell2_44" priority="1" numLanes="1" speed="67.056000"/>
	<edge id="road280" from="cell1_45" to="cell1_45" priority="1" numLanes="1" speed="67.056000"/>
	<edge id="road281" from="cell1_45" to="cell0_45" priority="1" numLanes="1" speed="67.056000"/>
	<edge id="road282" from="cell1_45" to="cell1_46" priority="1" numLanes="1" speed="67.056000"/>
	<edge id="road283" from="cell1_46" to="cell1_46" priority="1" numLanes="1" speed="67.056000"/>
	<edge id="road284" from="cell1_46" to="cell1_45" priority="1" numLanes="1" speed="67.056000"/>
	<edge id="road285" from="cell1_46" to="cell2_46" priority="1" numLanes="1" speed="67.056000"/>
	<edge id="road286" from="cell1_46" to="cell1_47" priority="1" numLanes="1" speed="67.056000"/>
	<edge id="road287" from="cell1_47" to="cell1_47" priority="1" numLanes="1" speed="67.056000"/>
	<edge id="road288" from="cell1_47" to="cell1_46" priority="1" numLanes="1" speed="67.056000"/>
	<edge id="road289" from="cell1_47" to="cell1_48" priority="1" numLanes="1" speed="67.056000"/>
	<edge id="road290" from="cell1_47" to="cell0_47" priority="1" numLanes="1" speed="67.056000"/>
	<edge id="road291" from="cell1_48" to="cell1_48" priority="1" numLanes="1" speed="67.056000"/>
	<edge id="road292" from="cell1_48" to="cell0_48" priority="1" numLanes="1" speed="67.056000"/>
	<edge id="road293" from="cell1_48" to="cell2_48" priority="1" numLanes="1" speed="67.056000"/>
	<edge id="road294" from="cell1_48" to="cell1_49" priority="1" numLanes="1" speed="67.056000"/>
	<edge id="road295" from="cell1_48" to="cell1_47" priority="1" numLanes="1" speed="67.056000"/>
	<edge id="road296" from="cell1_49" to="cell1_48" priority="1" numLanes="1" speed="67.056000"/>
	<edge id="road297" from="cell1_49" to="cell2_49" priority="1" numLanes="1" speed="67.056000"/>
	<edge id="road298" from="cell1_50" to="cell1_51" priority="1" numLanes="1" speed="67.056000"/>
	<edge id="road299" from="cell1_50" to="cell1_50" priority="1" numLanes="1" speed="67.056000"/>
	<edge id="road300" from="cell1_50" to="cell2_50" priority="1" numLanes="1" speed="67.056000"/>
	<edge id="road301" from="cell1_51" to="cell1_51" priority="1" numLanes="1" speed="67.056000"/>
	<edge id="road302" from="cell1_51" to="cell0_51" priority="1" numLanes="1" speed="67.056000"/>
	<edge id="road303" from="cell1_51" to="cell1_50" priority="1" numLanes="1" speed="67.056000"/>
	<edge id="road304" from="cell1_51" to="cell2_51" priority="1" numLanes="1" speed="67.056000"/>
	<edge id="road305" from="cell2_3" to="cell2_3" priority="1" numLanes="1" speed="67.056000"/>
	<edge id="road306" from="cell2_3" to="cell2_4" priority="1" numLanes="1" speed="67.056000"/>
	<edge id="road307" from="cell2_3" to="cell1_2" priority="1" numLanes="1" speed="67.056000"/>
	<edge id="road308" from="cell2_3" to="cell3_3" priority="1" numLanes="1" speed="67.056000"/>
	<edge id="road309" from="cell2_3" to="cell1_3" priority="1" numLanes="1" speed="67.056000"/>
	<edge id="road310" from="cell2_3" to="cell1_4" priority="1" numLanes="1" speed="67.056000"/>
	<edge id="road311" from="cell2_3" to="cell3_4" priority="1" numLanes="1" speed="67.056000"/>
	<edge id="road312" from="cell2_4" to="cell3_4" priority="1" numLanes="1" speed="67.056000"/>
	<edge id="road313" from="cell2_4" to="cell1_4" priority="1" numLanes="1" speed="67.056000"/>